%nprocshared=1
%mem=2GB
#HF/6-31G* nosymm scf=tight 

Mol

0 1
H	 2.570845	 -2.791077	 1.236504
C	 1.973216	 -2.991969	 0.353197
C	 0.741571	 -2.088804	 0.305179
H	 2.607096	 -2.837800	 -0.515512
H	 1.693563	 -4.041506	 0.375856
C	 -0.127859	 -2.340084	 -0.922563
H	 1.041415	 -1.045507	 0.308800
H	 0.146639	 -2.243420	 1.203812
N	 -1.268658	 -1.446027	 -0.948991
H	 0.458411	 -2.160495	 -1.819780
H	 -0.423685	 -3.394112	 -0.952374
C	 -1.217365	 -0.386708	 0.039277
H	 -1.355622	 -1.044301	 -1.863373
C	 -2.452633	 0.504241	 -0.042481
H	 -1.172857	 -0.848333	 1.022069
H	 -0.315698	 0.227728	 -0.054795
C	 -3.758029	 -0.289423	 -0.010781
H	 -2.394220	 1.093569	 -0.952170
H	 -2.440793	 1.210787	 0.785871
H	 -3.816659	 -0.981993	 -0.845726
H	 -4.617837	 0.370165	 -0.069296
H	 -3.847478	 -0.867502	 0.904682

15 12 14 18 F

