%nprocshared=1
%mem=2GB
#HF/6-31G* nosymm scf=tight 

Mol

0 1
O	 2.407940	 2.061822	 -0.250885
C	 1.404939	 2.395017	 -0.803810
C	 0.147757	 1.544148	 -0.782517
C	 1.321925	 3.699933	 -1.568964
C	 0.291004	 0.242674	 0.000989
H	 -0.659058	 2.151962	 -0.375087
H	 -0.135973	 1.342903	 -1.814699
C	 -0.994322	 -0.586602	 0.000262
H	 0.581980	 0.471856	 1.021253
H	 1.105479	 -0.338261	 -0.420072
C	 -2.259874	 0.272531	 0.000494
H	 -1.004862	 -1.240012	 -0.870939
H	 -1.005220	 -1.241071	 0.870675
C	 -3.549786	 -0.549746	 -0.000374
H	 -2.250389	 0.926680	 -0.869574
H	 -2.250838	 0.925513	 0.871430
C	 -4.809590	 0.315458	 -0.000369
H	 -3.560515	 -1.202009	 -0.871156
H	 -3.561123	 -1.202955	 0.869711
H	 -4.844746	 0.956611	 -0.876632
H	 -5.706986	 -0.295590	 -0.001609
H	 -4.845960	 0.954827	 0.877144
H	 0.539645	 4.331277	 -1.157793
H	 2.269822	 4.216802	 -1.512641
H	 1.071963	 3.513595	 -2.609363

15 11 8 12 F

15 11 14 18 F

1 2 3 6 F

9 5 3 6 F

