%nprocshared=1
%mem=2GB
#HF/6-31G* nosymm scf=tight 

Mol

0 1
H	 -2.499110	 0.859442	 -0.984810
C	 -1.668215	 1.507217	 -1.236501
C	 -0.363904	 0.721796	 -1.304664
H	 -1.616550	 2.281151	 -0.480433
H	 -1.876845	 1.975867	 -2.192595
C	 -0.000005	 0.033229	 -0.000001
H	 0.463734	 1.371512	 -1.582658
H	 -0.411043	 -0.037722	 -2.082679
C	 1.290528	 -0.768786	 0.000276
O	 -0.689106	 0.117723	 0.970146
C	 2.545731	 0.095645	 -0.000061
H	 1.275672	 -1.427874	 -0.865626
H	 1.275566	 -1.427086	 0.866768
H	 2.577157	 0.734767	 -0.874036
H	 3.433520	 -0.528139	 0.000137
H	 2.577172	 0.735117	 0.873581
