%nprocshared=1
%mem=2GB
#HF/6-31G* nosymm scf=tight 

Mol

0 1
H	 1.520941	 -4.235770	 -3.470795
C	 1.451944	 -3.717048	 -2.520050
C	 0.263386	 -2.756852	 -2.502210
H	 1.361269	 -4.468392	 -1.740636
H	 2.388822	 -3.189889	 -2.363173
C	 0.130719	 -2.005344	 -1.181592
H	 -0.659108	 -3.298792	 -2.685768
H	 0.368163	 -2.039319	 -3.314344
N	 -1.023095	 -1.127805	 -1.191372
H	 -0.000052	 -2.720443	 -0.373820
H	 1.061339	 -1.467786	 -0.970979
C	 -1.217365	 -0.386708	 0.039277
H	 -0.946793	 -0.486145	 -1.957852
C	 -2.452633	 0.504241	 -0.042481
H	 -1.345922	 -1.104533	 0.844981
H	 -0.344655	 0.220357	 0.302399
C	 -3.758029	 -0.289423	 -0.010781
H	 -2.394220	 1.093569	 -0.952170
H	 -2.440793	 1.210787	 0.785871
H	 -3.816659	 -0.981993	 -0.845726
H	 -4.617837	 0.370165	 -0.069296
H	 -3.847478	 -0.867502	 0.904682

10 6 9 12 F

