%nprocshared=1
%mem=2GB
#HF/6-31G* nosymm scf=tight opt=ModRedundant

Mol

0 1
H	 -2.444000	 -2.356000	 -0.001000
C	 -1.889000	 -1.437000	 -0.001000
C	 -2.539000	 -0.214000	 -0.000000
C	 -0.511000	 -1.462000	 -0.001000
H	 -3.614000	 -0.173000	 -0.000000
C	 -1.812000	 0.962000	 0.000000
H	 0.021000	 -2.390000	 -0.001000
C	 0.206000	 -0.273000	 -0.000000
H	 -2.335000	 1.900000	 0.001000
C	 -0.419000	 0.979000	 0.000000
N	 1.662000	 -0.407000	 -0.000000
C	 0.274000	 2.324000	 0.001000
O	 2.325000	 0.586000	 -0.003000
O	 2.119000	 -1.511000	 0.002000
H	 0.904000	 2.447000	 -0.869000
H	 -0.474000	 3.107000	 0.002000
H	 0.905000	 2.445000	 0.870000
