%nprocshared=1
%mem=2GB
#HF/6-31G* nosymm scf=tight 

Mol

0 1
H	 -2.095764	 0.435638	 -2.350391
C	 -2.795213	 1.048318	 -1.768139
C	 -2.660244	 0.921717	 -0.272021
O	 -3.583432	 1.744001	 -2.321751
C	 -3.213498	 -0.408240	 0.258431
H	 -1.616526	 1.051896	 -0.010461
H	 -3.220475	 1.744543	 0.170419
C	 -4.733780	 -0.531900	 0.129011
H	 -2.738037	 -1.219560	 -0.284691
H	 -2.922602	 -0.530527	 1.300632
C	 -5.269732	 -1.866530	 0.650868
H	 -5.012945	 -0.411925	 -0.915747
H	 -5.217278	 0.282718	 0.664890
C	 -6.788493	 -1.993347	 0.505160
H	 -4.775915	 -2.676190	 0.119523
H	 -4.999034	 -1.978305	 1.699969
C	 -7.381809	 -3.280254	 1.089897
H	 -7.056598	 -1.920775	 -0.547716
H	 -7.257267	 -1.143188	 0.996276
C	 -6.955713	 -4.560917	 0.370201
H	 -8.465804	 -3.205310	 1.054042
H	 -7.118019	 -3.352433	 2.143048
H	 -7.192674	 -4.510364	 -0.689309
H	 -5.890384	 -4.743953	 0.462647
H	 -7.470452	 -5.423566	 0.782360

6 3 5 8 F

3 5 8 12 F

12 8 11 14 F

8 11 14 18 F

20 17 14 18 F

