%nprocshared=1
%mem=2GB
#HF/6-31G* nosymm scf=tight 

Mol

0 1
H	 -0.216825	 0.021369	 -3.357402
C	 0.374198	 0.036393	 -2.447010
C	 -0.521757	 -0.028637	 -1.217342
H	 0.969602	 0.942322	 -2.434777
H	 1.053364	 -0.811668	 -2.481329
N	 0.263400	 0.031178	 0.000000
H	 -1.199035	 0.820290	 -1.219355
H	 -1.147901	 -0.924895	 -1.265384
C	 -0.521757	 -0.028637	 1.217342
H	 0.935769	 -0.712709	 0.000000
C	 -1.667539	 0.973629	 1.176190
H	 -0.924515	 -1.033341	 1.305334
H	 0.084237	 0.141946	 2.112504
H	 -2.302273	 0.788748	 0.316949
H	 -2.272017	 0.907157	 2.075375
H	 -1.293966	 1.991983	 1.105116
