%nprocshared=1
%mem=2GB
#HF/6-31G* nosymm scf=tight 

Mol

0 1
H	 -0.367348	 2.047014	 -0.308205
C	 0.352277	 1.337084	 0.083769
N	 -0.000016	 0.000074	 -0.335546
H	 1.328359	 1.600444	 -0.307950
H	 0.381933	 1.450534	 1.172486
C	 -1.386767	 -0.093914	 -0.730965
C	 0.888736	 -0.496099	 -1.361260
H	 -1.632073	 -1.122534	 -0.969958
H	 -2.024715	 0.219796	 0.087615
H	 -1.626099	 0.523243	 -1.603158
H	 1.911725	 -0.476142	 -1.002833
H	 0.638550	 -1.523845	 -1.599131
H	 0.842518	 0.087175	 -2.286778
