%nprocshared=1
%mem=2GB
#HF/6-31G* nosymm scf=tight 

Mol

0 1
H	 -2.966855	 1.048587	 0.733246
O	 -2.550964	 1.893683	 0.822236
C	 -3.527800	 2.903510	 0.832127
C	 -4.329104	 2.952053	 2.128384
H	 -2.990675	 3.833862	 0.699407
H	 -4.198439	 2.793301	 -0.019270
C	 -3.469106	 2.906295	 3.393761
H	 -4.930449	 3.857454	 2.128353
H	 -5.021134	 2.111544	 2.130862
C	 -2.777749	 1.554176	 3.590279
H	 -4.091945	 3.124174	 4.256876
H	 -2.713240	 3.690363	 3.346390
C	 -2.087810	 0.996018	 2.340165
H	 -2.050330	 1.637758	 4.395712
H	 -3.519075	 0.831953	 3.925733
C	 -3.034785	 0.600176	 1.203932
H	 -1.394903	 1.747755	 1.967892
H	 -1.479584	 0.136776	 2.618735
C	 -4.465221	 1.099239	 1.418936
H	 -3.044660	 -0.484477	 1.106250
H	 -2.666261	 0.987989	 0.257311
C	 -5.411106	 0.710962	 0.283063
H	 -4.847259	 0.703375	 2.357459
H	 -4.456195	 2.181939	 1.526468
H	 -5.467273	 -0.368187	 0.171231
H	 -6.416738	 1.077069	 0.465559
H	 -5.076338	 1.123259	 -0.664726

14 10 7 4 F

14 10 13 16 F

10 7 4 8 F

8 4 3 2 F

20 16 19 22 F

4 3 2 1 F

