%nprocshared=1
%mem=2GB
#HF/6-31G* nosymm scf=tight 

Mol

0 1
H	 -0.186125	 -0.830362	 -0.875758
N	 -0.626943	 -0.667432	 -0.000092
C	 -1.979713	 -0.158776	 0.000050
C	 0.069410	 -0.934696	 1.131203
H	 -2.520245	 -0.492427	 -0.879443
H	 -1.934741	 0.918111	 -0.004428
H	 -2.517790	 -0.485056	 0.883818
C	 1.471466	 -1.460793	 0.897869
O	 -0.377902	 -0.771200	 2.232746
H	 2.063024	 -0.740225	 0.341816
H	 1.938914	 -1.644920	 1.853530
H	 1.444469	 -2.383973	 0.327476

3 2 4 9 F

