%nprocshared=1
%mem=2GB
#HF/6-31G* nosymm scf=tight 

Mol

0 1
H	 -3.489899	 1.228218	 -1.029938
O	 -3.452007	 0.283848	 -0.965577
C	 -3.181085	 -0.079926	 0.364119
C	 -1.765924	 0.277073	 0.805136
H	 -3.327791	 -1.152017	 0.410903
H	 -3.905698	 0.375695	 1.036898
C	 -0.938483	 0.954598	 -0.287942
H	 -1.820024	 0.925436	 1.680157
H	 -1.269720	 -0.634454	 1.133953
C	 -0.612331	 0.023914	 -1.457827
H	 -0.018536	 1.334900	 0.145391
H	 -1.482732	 1.821956	 -0.657909
C	 -1.836888	 -0.741800	 -1.965988
H	 -0.178848	 0.609317	 -2.265176
H	 0.153290	 -0.687939	 -1.151732
C	 -2.408241	 -1.766072	 -0.978781
H	 -1.585114	 -1.244617	 -2.898447
H	 -2.618393	 -0.025293	 -2.210292
C	 -3.777982	 -2.326801	 -1.365820
H	 -2.488378	 -1.295094	 -0.002027
H	 -1.702201	 -2.585926	 -0.862375
H	 -4.502230	 -1.527928	 -1.501486
H	 -4.157004	 -2.987008	 -0.591671
H	 -3.737976	 -2.897217	 -2.287877

20 16 13 17 F

17 13 10 7 F

13 10 7 11 F

11 7 4 3 F

1 2 3 5 F

