%nprocshared=1
%mem=2GB
#HF/6-31G* nosymm scf=tight 
prop=(read,field)

Mol

0 1
H	 -0.821028	 -1.656070	 -0.000000
O	 -1.037824	 -0.728781	 -0.000000
C	 0.100513	 -0.037116	 0.000000
C	 -0.145611	 1.444547	 0.000000
O	 1.164307	 -0.563960	 0.000000
H	 -0.723759	 1.717980	 -0.875040
H	 0.798376	 1.968035	 -0.000000
H	 -0.723759	 1.717980	 0.875040

@grid.dat /N
