%nprocshared=1
%mem=2GB
#HF/6-31G* nosymm scf=tight 

Mol

0 1
O	 -1.487788	 1.240889	 -0.102860
C	 -1.083277	 0.139568	 0.115197
C	 0.323299	 -0.082943	 0.642902
C	 -1.933017	 -1.084621	 -0.143902
C	 1.355627	 -0.005344	 -0.493127
H	 0.396251	 -1.044647	 1.143147
H	 0.528637	 0.693580	 1.371677
C	 1.825612	 -1.386146	 -0.946723
H	 0.929569	 0.527059	 -1.340649
H	 2.202603	 0.579996	 -0.150857
H	 2.557216	 -1.304396	 -1.744071
H	 0.996782	 -1.982719	 -1.316811
H	 2.286530	 -1.930088	 -0.127744
H	 -1.393885	 -1.806447	 -0.750509
H	 -2.850323	 -0.799888	 -0.640100
H	 -2.169004	 -1.571158	 0.798858

4 2 3 5 F

