%nprocshared=1
%mem=2GB
#HF/6-31G* nosymm scf=tight 

Mol

0 1
H	 -3.135461	 -1.215070	 0.001379
O	 -2.310168	 -0.871793	 -0.309793
C	 -2.026376	 0.340750	 0.341611
C	 -0.673256	 0.843270	 -0.132153
H	 -2.792215	 1.080697	 0.115987
H	 -2.013526	 0.200402	 1.421792
C	 0.486613	 -0.083066	 0.235839
H	 -0.715586	 0.970948	 -1.210718
H	 -0.508072	 1.829858	 0.297090
C	 1.856665	 0.556826	 0.004947
H	 0.408870	 -0.997512	 -0.343176
H	 0.397271	 -0.370690	 1.282802
C	 2.229183	 0.648749	 -1.474395
H	 1.865742	 1.553589	 0.440949
H	 2.617950	 -0.013839	 0.533370
H	 1.504732	 1.243082	 -2.023786
H	 3.203832	 1.108320	 -1.607800
H	 2.262443	 -0.335999	 -1.932300

14 10 7 11 F

2 3 4 8 F

1 2 3 4 F

