%nprocshared=1
%mem=2GB
#HF/6-31G* nosymm scf=tight 

Mol

0 1
O	 1.214157	 1.307779	 0.031442
C	 1.120440	 0.124367	 0.093037
C	 -0.171726	 -0.655503	 0.090780
O	 2.169595	 -0.684134	 0.174125
C	 -1.412532	 0.227344	 -0.000452
H	 -0.126007	 -1.357118	 -0.737713
H	 -0.186017	 -1.262831	 0.991725
C	 -2.706999	 -0.587347	 -0.000541
H	 -1.357465	 0.830953	 -0.901079
H	 -1.417305	 0.925750	 0.830638
C	 -3.956778	 0.291888	 0.000910
H	 -2.726114	 -1.239230	 -0.871609
H	 -2.725217	 -1.240844	 0.869333
H	 -3.985213	 0.933254	 -0.875158
H	 -4.860123	 -0.309979	 0.000519
H	 -3.984618	 0.931166	 0.878514
C	 3.449053	 -0.077502	 0.185352
H	 3.610735	 0.485345	 -0.722694
H	 4.158858	 -0.886998	 0.254943
H	 3.549236	 0.582531	 1.034956

1 2 3 6 F

9 5 3 6 F

1 2 4 17 F

