%nprocshared=1
%mem=2GB
#HF/6-31G* nosymm scf=tight opt=ModRedundant

Mol

0 1
O	 1.292000	 1.319000	 -0.000000
C	 1.200000	 0.134000	 0.000000
C	 -0.092000	 -0.645000	 -0.000000
O	 2.250000	 -0.676000	 0.000000
C	 -1.335000	 0.240000	 0.001000
H	 -0.076000	 -1.300000	 -0.867000
H	 -0.076000	 -1.302000	 0.866000
C	 -2.629000	 -0.575000	 -0.000000
H	 -1.310000	 0.893000	 -0.866000
H	 -1.310000	 0.891000	 0.869000
C	 -3.879000	 0.305000	 -0.000000
H	 -2.648000	 -1.227000	 -0.871000
H	 -2.648000	 -1.228000	 0.870000
H	 -3.907000	 0.945000	 -0.877000
H	 -4.782000	 -0.297000	 -0.000000
H	 -3.907000	 0.945000	 0.876000
C	 3.530000	 -0.070000	 -0.000000
H	 3.659000	 0.543000	 -0.880000
H	 4.241000	 -0.881000	 -0.001000
H	 3.661000	 0.542000	 0.881000
