%nprocshared=1
%mem=2GB
#HF/6-31G* nosymm scf=tight 

Mol

0 1
H	 -1.658084	 2.492168	 0.418779
C	 -0.636334	 2.131010	 0.433447
C	 -0.603454	 0.661669	 0.000000
H	 -0.246427	 2.248225	 1.437277
H	 -0.046439	 2.746085	 -0.235244
C	 0.763625	 0.112519	 0.000000
H	 -1.206680	 0.052479	 0.663005
H	 -1.007959	 0.547184	 -0.998919
N	 1.813038	 -0.320305	 0.000000
