%nprocshared=1
%mem=2GB
#HF/6-31G* nosymm scf=tight 

Mol

0 1
O	 -2.324811	 1.361668	 -0.277141
C	 -2.105949	 0.203097	 -0.092081
C	 -0.889235	 -0.467034	 -0.705952
C	 -3.002726	 -0.644460	 0.782455
C	 -0.799690	 -0.167705	 -2.211118
H	 -0.991520	 -1.536187	 -0.555110
H	 0.019130	 -0.140442	 -0.207718
C	 0.398899	 -0.856029	 -2.868545
H	 -1.725686	 -0.487914	 -2.675210
H	 -0.725209	 0.907410	 -2.367089
C	 0.575894	 -0.534611	 -4.356973
H	 0.306661	 -1.933186	 -2.742240
H	 1.304265	 -0.563480	 -2.340742
C	 -0.542855	 -1.061800	 -5.257233
H	 1.520315	 -0.958943	 -4.688187
H	 0.666711	 0.542299	 -4.483875
H	 -0.662595	 -2.135686	 -5.142539
H	 -0.320767	 -0.864602	 -6.301354
H	 -1.497555	 -0.597081	 -5.035027
H	 -3.496582	 -1.399307	 0.176174
H	 -3.747939	 -0.023774	 1.260148
H	 -2.421318	 -1.168775	 1.535358

6 3 5 8 F

3 5 8 12 F

12 8 11 15 F

