%nprocshared=1
%mem=2GB
#HF/6-31G* nosymm scf=tight 

Mol

0 1
O	 -0.198696	 -2.259577	 -0.048862
C	 -1.278543	 -1.761562	 -0.025906
C	 -2.565246	 -2.546200	 -0.023491
O	 -1.481751	 -0.454642	 0.000584
H	 -2.571033	 -3.202319	 0.838678
H	 -3.430809	 -1.900701	 0.000382
H	 -2.594552	 -3.169091	 -0.909510
C	 -0.334255	 0.388708	 0.000906
C	 0.891947	 -0.504646	 0.000751
H	 -0.365390	 1.025305	 -0.873475
H	 -0.365484	 1.024911	 0.875569
C	 0.838286	 -1.556101	 -1.109219
H	 0.972990	 -0.989855	 0.969484
H	 1.777328	 0.114301	 -0.115286
C	 2.066380	 -2.468149	 -1.125975
H	 -0.057155	 -2.163911	 -0.991577
H	 0.746717	 -1.061544	 -2.074677
C	 2.012105	 -3.519181	 -2.233789
H	 2.159189	 -2.963432	 -0.162048
H	 2.961939	 -1.862600	 -1.245782
H	 1.144243	 -4.162811	 -2.121673
H	 2.895411	 -4.149905	 -2.219882
H	 1.953372	 -3.053728	 -3.213541

13 9 8 10 F

16 12 9 13 F

19 15 12 16 F

1 2 4 8 F

