%nprocshared=1
%mem=2GB
#HF/6-31G* nosymm scf=tight 

Mol

0 1
H	 2.591676	 2.013956	 0.335017
O	 3.341076	 1.666752	 -0.126416
C	 3.569581	 0.339145	 0.272707
C	 2.539767	 -0.640285	 -0.279495
H	 4.553106	 0.084646	 -0.100901
H	 3.608576	 0.269204	 1.359154
C	 1.115811	 -0.397273	 0.226630
H	 2.556196	 -0.582511	 -1.364741
H	 2.852081	 -1.648031	 -0.010655
C	 0.115918	 -1.429151	 -0.302766
H	 0.797950	 0.599468	 -0.066350
H	 1.109961	 -0.420744	 1.316472
C	 -0.434124	 -1.133401	 -1.702882
H	 0.581373	 -2.413117	 -0.299457
H	 -0.720615	 -1.487732	 0.390402
C	 0.598874	 -1.209856	 -2.830511
H	 -1.230944	 -1.843557	 -1.914009
H	 -0.899097	 -0.148704	 -1.705746
C	 -0.016728	 -1.011774	 -4.217318
H	 1.098168	 -2.177097	 -2.795014
H	 1.373269	 -0.461538	 -2.680063
C	 1.013244	 -1.081234	 -5.344259
H	 -0.782864	 -1.766339	 -4.382112
H	 -0.524390	 -0.050010	 -4.251583
H	 1.515888	 -2.044253	 -5.357182
H	 0.546116	 -0.939242	 -6.313931
H	 1.773972	 -0.314251	 -5.228526

14 10 13 16 F

10 7 4 8 F

8 4 3 2 F

10 13 16 20 F

20 16 19 22 F

4 3 2 1 F

