%nprocshared=1
%mem=2GB
#HF/6-31G* nosymm scf=tight 

Mol

0 1
H	 -1.836216	 1.387520	 -0.000064
C	 -1.301823	 0.443321	 -0.000031
O	 -0.003969	 0.658512	 0.000451
O	 -1.829879	 -0.616434	 -0.000857
C	 0.571958	 1.192754	 1.192122
C	 0.076760	 2.615427	 1.337390
H	 1.649189	 1.148802	 1.108700
H	 0.275583	 0.576422	 2.029733
H	 0.375926	 3.215879	 0.485927
H	 0.493450	 3.060283	 2.235001
H	 -1.004331	 2.640900	 1.411428

7 5 3 2 F

