%nprocshared=1
%mem=2GB
#HF/6-31G* nosymm scf=tight 

Mol

0 1
O	 0.483880	 0.638863	 0.941877
C	 0.028650	 0.075053	 -0.000277
C	 -1.233602	 -0.752807	 0.000328
O	 0.586523	 0.101378	 -1.203600
C	 -2.501530	 0.091881	 0.000126
H	 -1.193807	 -1.406641	 -0.865785
H	 -1.193516	 -1.405779	 0.867015
H	 -2.545121	 0.729328	 -0.874513
H	 -3.377167	 -0.548497	 0.000561
H	 -2.544818	 0.730135	 0.874258
C	 1.783090	 0.846317	 -1.341007
H	 1.613705	 1.885234	 -1.097339
H	 2.075112	 0.747379	 -2.374833
H	 2.553257	 0.450703	 -0.694629

11 4 2 3 F

