%nprocshared=1
%mem=2GB
#HF/6-31G* nosymm scf=tight 

Mol

0 1
H	 -3.161837	 0.500524	 -0.000234
C	 -2.367097	 -0.232926	 -0.000000
O	 -1.158440	 0.455814	 -0.000122
H	 -2.468853	 -0.861886	 -0.882833
H	 -2.468942	 -0.861421	 0.883154
C	 -1.281072	 1.830684	 -0.206441
C	 0.103135	 2.455256	 -0.183159
H	 -1.908745	 2.272111	 0.568845
H	 -1.767981	 2.024758	 -1.163083
C	 0.065867	 3.967109	 -0.401776
H	 0.568348	 2.225713	 0.770544
H	 0.708157	 1.980172	 -0.949281
H	 -0.515382	 4.464974	 0.369395
H	 1.066273	 4.386147	 -0.380800
H	 -0.375286	 4.217795	 -1.362476

11 7 6 8 F

8 6 3 2 F

