%nprocshared=1
%mem=2GB
#HF/6-31G* nosymm scf=tight 

Mol

0 1
H	 -1.831579	 2.060262	 -1.083509
C	 -0.815905	 1.683977	 -1.121459
C	 -0.603454	 0.661669	 0.000000
H	 -0.136711	 2.521358	 -1.016909
H	 -0.654141	 1.233244	 -2.093114
C	 0.763625	 0.112519	 0.000000
H	 -0.780661	 1.113028	 0.969248
H	 -1.294813	 -0.166923	 -0.100137
N	 1.813038	 -0.320305	 0.000000
