%nprocshared=1
%mem=2GB
#HF/6-31G* nosymm scf=tight 

Mol

0 1
H	 -1.281644	 -1.862090	 1.376601
N	 -0.496901	 -1.245921	 1.287191
C	 -0.563778	 -0.502042	 0.037919
H	 0.325341	 -1.818708	 1.311424
C	 0.575259	 0.508231	 -0.048326
H	 -1.512321	 0.026231	 0.018181
H	 -0.544781	 -1.143981	 -0.846558
C	 1.954651	 -0.143624	 0.035137
H	 0.475158	 1.060484	 -0.977307
H	 0.469181	 1.234488	 0.755973
H	 2.103292	 -0.853109	 -0.774172
H	 2.742821	 0.599562	 -0.030094
H	 2.083613	 -0.679371	 0.971560

1 2 3 6 F

