%nprocshared=1
%mem=2GB
#HF/6-31G* nosymm scf=tight 

Mol

0 1
H	 -0.434557	 -1.458907	 -0.569488
N	 -0.626943	 -0.667432	 -0.000092
C	 -1.910712	 -0.018990	 -0.142139
C	 0.325755	 -0.252874	 0.869779
H	 -2.444671	 -0.399701	 -1.006403
H	 -1.741923	 1.037533	 -0.272518
H	 -2.523184	 -0.171466	 0.740278
C	 1.674978	 -0.919497	 0.690344
O	 0.127974	 0.574320	 1.716447
H	 2.068026	 -0.726742	 -0.302990
H	 2.359261	 -0.526889	 1.427442
H	 1.590945	 -1.994555	 0.814939

4 2 3 5 F

