%nprocshared=1
%mem=2GB
#HF/6-31G* nosymm scf=tight 

Mol

0 1
O	 0.563848	 0.694034	 -1.943466
C	 0.788116	 1.716284	 -1.379704
C	 1.273142	 1.846387	 0.043563
O	 0.640172	 2.906476	 -1.947763
C	 2.430538	 0.910172	 0.377600
H	 1.550035	 2.885640	 0.198475
H	 0.421580	 1.667515	 0.694383
C	 3.591599	 1.047935	 -0.608310
H	 2.071467	 -0.114140	 0.383987
H	 2.776399	 1.114740	 1.385986
C	 3.295929	 0.420100	 -1.971491
H	 3.830832	 2.101693	 -0.743798
H	 4.483255	 0.585880	 -0.187196
C	 2.006851	 0.944464	 -2.602816
H	 3.231759	 -0.660301	 -1.863068
H	 4.130380	 0.609903	 -2.642910
H	 1.148075	 0.738594	 -1.970094
H	 1.825020	 0.481114	 -3.567542
H	 2.053680	 2.019052	 -2.755717
C	 1.792514	 3.724689	 -2.034891
H	 2.180449	 3.940881	 -1.049855
H	 1.472688	 4.634305	 -2.518819
H	 2.560106	 3.239076	 -2.620117

15 11 8 12 F

9 5 8 12 F

1 2 3 6 F

9 5 3 6 F

