%nprocshared=1
%mem=2GB
#HF/6-31G* nosymm scf=tight 

Mol

0 1
O	 -0.806752	 -1.114546	 1.082146
C	 -0.561929	 -0.074560	 0.531515
C	 -1.597472	 1.034011	 0.503089
N	 0.623947	 0.147590	 -0.102813
H	 -1.868528	 1.298769	 -0.513038
H	 -2.472791	 0.671041	 1.019920
H	 -1.237628	 1.928840	 0.999450
C	 1.819944	 0.315308	 0.699271
C	 0.738400	 0.570729	 -1.481254
H	 2.691680	 0.305454	 0.054293
H	 1.891539	 -0.490393	 1.408961
H	 1.804165	 1.259409	 1.239499
H	 1.653431	 0.169281	 -1.900297
H	 -0.081671	 0.204772	 -2.078324
H	 0.775487	 1.654818	 -1.571742

2 4 8 10 F

