%nprocshared=1
%mem=2GB
#HF/6-31G* nosymm scf=tight 

Mol

0 1
O	 -2.042549	 -1.228399	 -0.269030
C	 -1.653912	 -0.146171	 0.050137
C	 -0.332303	 0.024011	 0.778412
C	 -2.438579	 1.106236	 -0.272369
C	 0.199795	 1.457390	 0.622948
H	 -0.443958	 -0.216759	 1.831952
H	 0.374719	 -0.674393	 0.344508
C	 0.625257	 1.775265	 -0.811266
H	 1.046375	 1.610030	 1.290096
H	 -0.574323	 2.150168	 0.939083
C	 -0.420737	 1.358327	 -1.844351
H	 0.819579	 2.841695	 -0.902880
H	 1.565609	 1.272702	 -1.025125
H	 -1.363907	 1.870717	 -1.677202
H	 -0.612223	 0.290299	 -1.798605
H	 -0.091152	 1.592838	 -2.851528
H	 -3.277823	 0.863061	 -0.908988
H	 -1.806773	 1.843019	 -0.759671
H	 -2.802853	 1.554979	 0.648059

11 8 5 9 F

9 5 3 2 F

