%nprocshared=1
%mem=2GB
#HF/6-31G* nosymm scf=tight 

Mol

0 1
O	 -0.488453	 0.057968	 1.132425
C	 -0.451170	 -1.129930	 1.097049
C	 0.801727	 -1.959116	 0.945507
O	 -1.528589	 -1.897310	 1.185968
C	 1.124911	 -2.785238	 2.184071
H	 1.613075	 -1.280220	 0.700432
H	 0.669725	 -2.590969	 0.072237
H	 1.272053	 -2.149836	 3.048928
H	 2.030738	 -3.360307	 2.024106
H	 0.320287	 -3.472711	 2.414906
C	 -1.696063	 -2.912711	 0.201939
C	 -1.982687	 -2.224667	 -1.115921
H	 -2.508829	 -3.561200	 0.499358
H	 -0.795261	 -3.509237	 0.153945
H	 -2.884719	 -1.627073	 -1.049749
H	 -2.117848	 -2.965210	 -1.897571
H	 -1.161793	 -1.574835	 -1.397182

2 4 11 13 F

4 2 3 6 F

