%nprocshared=1
%mem=2GB
#HF/6-31G* nosymm scf=tight 

Mol

0 1
H	 -3.461459	 -0.518120	 -0.753737
O	 -3.115265	 -0.183647	 0.062285
C	 -1.776982	 -0.064832	 0.007991
C	 -1.047888	 -0.404852	 -1.127707
C	 -1.132291	 0.416424	 1.140613
H	 -1.555325	 -0.777116	 -2.001341
C	 0.323772	 -0.262143	 -1.126155
H	 -1.716564	 0.671853	 2.004125
C	 0.240091	 0.553572	 1.126764
H	 0.898827	 -0.520627	 -1.995406
C	 0.984182	 0.218375	 0.000000
H	 0.740175	 0.926471	 2.004217
C	 2.452467	 0.370529	 0.000000
O	 3.228994	 -0.533774	 0.000000
H	 2.809473	 1.405765	 0.000000

5 3 2 1 F

