%nprocshared=1
%mem=2GB
#HF/6-31G* nosymm scf=tight 

Mol

0 1
H	 -1.740819	 2.286203	 0.840021
C	 -0.721967	 1.917832	 0.869443
C	 -0.603454	 0.661669	 0.000000
H	 -0.465747	 1.702240	 1.899643
H	 -0.064595	 2.700886	 0.511489
C	 0.763625	 0.112519	 0.000000
H	 -1.273442	 -0.113723	 0.352777
H	 -0.874832	 0.878595	 -1.026580
N	 1.813038	 -0.320305	 0.000000
