%nprocshared=1
%mem=2GB
#HF/6-31G* nosymm scf=tight 

Mol

0 1
O	 -0.853572	 -3.512081	 -4.346407
C	 0.048920	 -4.077166	 -3.807315
C	 0.396559	 -3.783821	 -2.358383
C	 0.866613	 -5.129797	 -4.521963
C	 1.009552	 -2.381393	 -2.214937
H	 1.116454	 -4.528103	 -2.035738
H	 -0.484514	 -3.870125	 -1.728869
C	 0.149006	 -1.302371	 -2.876593
H	 1.136078	 -2.174150	 -1.158327
H	 2.003725	 -2.368896	 -2.659021
C	 0.075323	 -1.399736	 -4.404711
H	 0.527972	 -0.321043	 -2.597119
H	 -0.860783	 -1.364715	 -2.476234
C	 -1.053427	 -2.288511	 -4.930067
H	 1.023541	 -1.787350	 -4.768483
H	 -0.024340	 -0.400645	 -4.824201
H	 -0.984148	 -3.291584	 -4.518035
H	 -1.004790	 -2.372263	 -6.011279
H	 -2.032469	 -1.894716	 -4.678683
H	 1.887034	 -4.777107	 -4.646921
H	 0.437026	 -5.336761	 -5.492224
H	 0.913242	 -6.043463	 -3.936435

6 3 2 1 F

6 3 5 8 F

3 5 8 12 F

