%nprocshared=1
%mem=2GB
#HF/6-31G* nosymm scf=tight 

Mol

0 1
H	 -2.716648	 0.059310	 1.020938
O	 -1.833019	 0.017109	 0.685542
C	 -1.862468	 -0.238823	 -0.695648
C	 -2.318124	 0.960405	 -1.519637
H	 -0.849072	 -0.505117	 -0.967290
H	 -2.491817	 -1.101827	 -0.909946
C	 -1.624793	 2.272565	 -1.144941
H	 -2.144422	 0.742918	 -2.570300
H	 -3.393750	 1.070453	 -1.392026
C	 -2.020594	 2.774096	 0.246686
H	 -1.867756	 3.029065	 -1.885915
H	 -0.544100	 2.134114	 -1.180664
C	 -1.988287	 1.708525	 1.348437
H	 -1.371218	 3.601451	 0.527117
H	 -3.027050	 3.183880	 0.193551
C	 -3.034785	 0.600176	 1.203932
H	 -1.000019	 1.253439	 1.354795
H	 -2.104704	 2.190407	 2.318011
C	 -4.465221	 1.099239	 1.418936
H	 -2.820206	 -0.191759	 1.920107
H	 -2.965745	 0.146443	 0.218203
C	 -5.411106	 0.710962	 0.283063
H	 -4.847259	 0.703375	 2.357459
H	 -4.456195	 2.181939	 1.526468
H	 -5.467273	 -0.368187	 0.171231
H	 -6.416738	 1.077069	 0.465559
H	 -5.076338	 1.123259	 -0.664726

14 10 7 4 F

14 10 13 16 F

10 7 4 8 F

8 4 3 2 F

10 13 16 20 F

4 3 2 1 F

