%nprocshared=1
%mem=2GB
#HF/6-31G* nosymm scf=tight 

Mol

0 1
O	 -2.042549	 -1.228399	 -0.269030
C	 -1.653912	 -0.146171	 0.050137
C	 -0.332303	 0.024011	 0.778412
C	 -2.438579	 1.106236	 -0.272369
C	 0.720398	 0.668223	 -0.137385
H	 -0.464495	 0.627914	 1.671838
H	 0.005100	 -0.960776	 1.082181
C	 1.146144	 -0.251229	 -1.282977
H	 1.597215	 0.943091	 0.446328
H	 0.312001	 1.590903	 -0.538651
C	 -0.042261	 -0.881852	 -2.007695
H	 1.746778	 0.311585	 -1.994247
H	 1.789349	 -1.035918	 -0.891674
H	 -0.687042	 -0.121903	 -2.439885
H	 -0.643849	 -1.478105	 -1.327976
H	 0.289392	 -1.530477	 -2.812256
H	 -3.277823	 0.863061	 -0.908988
H	 -1.806773	 1.843019	 -0.759671
H	 -2.802853	 1.554979	 0.648059

11 8 5 9 F

9 5 3 2 F

