%nprocshared=1
%mem=2GB
#HF/6-31G* nosymm scf=tight 

Mol

0 1
H	 -2.759102	 1.629469	 1.166261
C	 -2.137352	 0.972040	 1.770708
O	 -0.871923	 0.815024	 1.214495
H	 -2.010755	 1.412722	 2.749949
H	 -2.648957	 0.016523	 1.878767
C	 -0.874367	 0.246818	 -0.056876
C	 0.535832	 0.228395	 -0.598362
H	 -1.255199	 -0.774365	 -0.013892
H	 -1.510740	 0.814013	 -0.733133
O	 1.392611	 -0.295398	 0.366430
H	 0.563395	 -0.370275	 -1.506569
H	 0.833905	 1.245300	 -0.856722
C	 2.706965	 -0.449871	 -0.062409
H	 2.756559	 -0.644779	 -1.131878
H	 3.305899	 0.433456	 0.155466
H	 3.125548	 -1.294566	 0.467107

3 6 7 11 F

2 3 6 7 F

