%nprocshared=1
%mem=2GB
#HF/6-31G* nosymm scf=tight 

Mol

0 1
H	 2.451652	 -2.178703	 0.543297
O	 2.773837	 -1.297590	 0.410870
C	 1.759943	 -0.431505	 0.213148
C	 2.090284	 0.853759	 -0.205078
C	 0.437099	 -0.777360	 0.409619
H	 3.125638	 1.098068	 -0.350726
C	 1.097148	 1.785745	 -0.424503
H	 0.154040	 -1.760115	 0.731480
C	 -0.534778	 0.183128	 0.179971
H	 1.361123	 2.775689	 -0.747280
C	 -0.239697	 1.462598	 -0.234072
N	 -1.932618	 -0.187959	 0.389312
H	 -1.021238	 2.174646	 -0.400167
O	 -2.178473	 -1.342648	 0.568981
O	 -2.746407	 0.683581	 0.368578

11 9 12 14 F

