%nprocshared=1
%mem=2GB
#HF/6-31G* nosymm scf=tight opt=ModRedundant

Mol

0 1
H	 -0.000000	 2.903000	 0.000000
C	 -0.000000	 1.827000	 0.000000
C	 1.192000	 1.128000	 -0.000000
C	 -1.192000	 1.128000	 -0.000000
H	 2.136000	 1.641000	 -0.000000
C	 1.144000	 -0.261000	 -0.000000
H	 -2.136000	 1.641000	 -0.000000
C	 -1.144000	 -0.261000	 -0.000000
N	 -0.000000	 -0.926000	 -0.000000
C	 2.399000	 -1.096000	 0.000000
C	 -2.398000	 -1.096000	 0.000000
H	 2.418000	 -1.739000	 -0.874000
H	 3.291000	 -0.482000	 -0.001000
H	 2.419000	 -1.738000	 0.875000
H	 -2.419000	 -1.738000	 -0.874000
H	 -3.291000	 -0.482000	 -0.000000
H	 -2.419000	 -1.738000	 0.874000
