%nprocshared=1
%mem=2GB
#HF/6-31G* nosymm scf=tight 

Mol

0 1
H	 -0.000158	 1.970498	 0.756846
O	 -0.000074	 1.880206	 -0.189275
C	 -0.000015	 0.544847	 -0.545111
C	 0.861217	 -0.251862	 0.429323
C	 0.417302	 0.396670	 -2.004524
H	 -1.012614	 0.180028	 -0.457628
F	 0.378436	 -0.130365	 1.647398
F	 0.896694	 -1.533323	 0.131063
F	 2.103689	 0.203930	 0.440053
F	 -0.427926	 1.048116	 -2.774422
F	 0.436090	 -0.860810	 -2.392817
F	 1.621599	 0.908131	 -2.203661

7 4 3 6 F

