%nprocshared=1
%mem=2GB
#HF/6-31G* nosymm scf=tight 

Mol

0 1
H	 -2.956959	 -0.948747	 0.862814
C	 -3.100504	 -0.513455	 -0.133949
C	 -2.660244	 0.921717	 -0.272021
O	 -3.573066	 -1.165180	 -1.007842
C	 -1.220012	 1.144545	 0.209990
H	 -2.784926	 1.219773	 -1.306587
H	 -3.337442	 1.523602	 0.332787
C	 -0.252658	 0.041456	 -0.226725
H	 -0.873521	 2.100229	 -0.171974
H	 -1.211708	 1.231594	 1.295398
C	 1.180775	 0.282413	 0.250794
H	 -0.266029	 -0.034465	 -1.312038
H	 -0.597733	 -0.921000	 0.146291
C	 2.148627	 -0.814315	 -0.201312
H	 1.516199	 1.249228	 -0.115937
H	 1.192670	 0.346017	 1.338083
C	 3.580890	 -0.659131	 0.322722
H	 2.166869	 -0.852443	 -1.289387
H	 1.762857	 -1.776509	 0.128956
C	 4.324889	 0.564933	 -0.213704
H	 4.142010	 -1.551473	 0.056605
H	 3.564836	 -0.624694	 1.410140
H	 4.342616	 0.565491	 -1.300421
H	 3.866655	 1.493402	 0.110242
H	 5.353900	 0.572371	 0.132816

6 3 2 4 F

3 5 8 12 F

12 8 11 14 F

8 11 14 18 F

20 17 14 18 F

