%nprocshared=1
%mem=2GB
#HF/6-31G* nosymm scf=tight 

Mol

0 1
H	 6.075336	 -6.274585	 3.836703
C	 6.114139	 -6.426621	 2.762505
C	 7.058846	 -5.426784	 2.096899
H	 6.439302	 -7.447363	 2.584472
H	 5.102547	 -6.329205	 2.377810
C	 7.131804	 -5.609194	 0.579263
H	 8.051426	 -5.533830	 2.522252
H	 6.727328	 -4.414294	 2.321961
C	 5.763951	 -5.730979	 -0.092609
H	 7.667993	 -4.776358	 0.138208
H	 7.703179	 -6.507493	 0.356482
C	 4.964761	 -4.436609	 -0.126394
H	 5.889679	 -6.044605	 -1.127791
H	 5.166913	 -6.508123	 0.379376
C	 3.475324	 -4.538016	 -0.405696
O	 5.485700	 -3.375043	 0.041252
C	 3.142513	 -5.197708	 -1.752249
H	 3.077758	 -3.530724	 -0.373804
H	 3.010537	 -5.105855	 0.398180
C	 3.906992	 -6.506058	 -1.962969
H	 2.073565	 -5.394231	 -1.800676
H	 3.371148	 -4.517137	 -2.568350
C	 3.584233	 -7.172245	 -3.299729
H	 3.675183	 -7.191428	 -1.151430
H	 4.975620	 -6.311267	 -1.903941
H	 2.526789	 -7.408725	 -3.374670
H	 3.837980	 -6.523738	 -4.133494
H	 4.139105	 -8.097216	 -3.419829

10 6 3 2 F

12 15 17 21 F

