%nprocshared=1
%mem=2GB
#HF/6-31G* nosymm scf=tight 

Mol

0 1
H	 -2.646374	 -0.642757	 1.268656
C	 -2.083525	 -0.384536	 0.393091
O	 -0.807605	 -0.127164	 0.768327
F	 -2.118945	 -1.383102	 -0.486752
F	 -2.621877	 0.670592	 -0.209486
C	 0.084052	 0.273579	 -0.209957
C	 0.423835	 1.732057	 0.068520
Cl	 -0.626222	 0.095463	 -1.822718
H	 0.996683	 -0.296069	 -0.190481
F	 -0.622806	 2.498321	 -0.154019
F	 1.386906	 2.107054	 -0.749593
F	 0.829608	 1.918945	 1.300752

10 7 6 9 F

6 3 2 4 F

