%nprocshared=1
%mem=2GB
#HF/6-31G* nosymm scf=tight 

Mol

0 1
H	 -2.698709	 -0.000305	 0.034435
C	 -1.693833	 0.000034	 0.434417
O	 -0.828952	 -0.000968	 -0.659236
H	 -1.574200	 0.882896	 1.055746
H	 -1.574147	 -0.881698	 1.057355
C	 -1.322424	 0.420967	 -1.909420
C	 -2.238798	 -0.615338	 -2.556913
C	 -1.963892	 1.805803	 -1.848552
H	 -0.427023	 0.496445	 -2.514887
H	 -1.772385	 -1.594432	 -2.537353
H	 -2.427475	 -0.348630	 -3.592048
H	 -3.200047	 -0.683227	 -2.057357
H	 -1.307564	 2.502299	 -1.338077
H	 -2.139884	 2.177711	 -2.853129
H	 -2.919032	 1.794048	 -1.333372

9 6 3 2 F

