%nprocshared=1
%mem=2GB
#HF/6-31G* nosymm scf=tight 

Mol

0 1
O	 -2.821601	 1.309235	 -0.001213
C	 -2.668563	 0.129746	 -0.000350
C	 -3.801572	 -0.864014	 -0.000442
O	 -1.481751	 -0.454642	 0.000584
H	 -4.417280	 -0.689587	 -0.874708
H	 -3.443784	 -1.883046	 -0.000565
H	 -4.417179	 -0.689832	 0.873954
C	 -0.334255	 0.388708	 0.000906
C	 0.891947	 -0.504646	 0.000751
H	 -0.365390	 1.025305	 -0.873475
H	 -0.365484	 1.024911	 0.875569
C	 2.175135	 0.278593	 0.284361
H	 0.964346	 -1.001384	 -0.962810
H	 0.758895	 -1.283733	 0.746259
C	 3.424068	 -0.604855	 0.287926
H	 2.294320	 1.063590	 -0.460395
H	 2.089559	 0.781041	 1.246289
C	 4.705846	 0.177715	 0.569872
H	 3.511315	 -1.107439	 -0.672737
H	 3.307649	 -1.388480	 1.033210
H	 4.867919	 0.947904	 -0.178830
H	 5.573076	 -0.475071	 0.565679
H	 4.662872	 0.664459	 1.540049

2 4 8 10 F

16 12 9 13 F

19 15 12 16 F

1 2 4 8 F

