%nprocshared=1
%mem=2GB
#HF/6-31G* nosymm scf=tight 

Mol

0 1
O	 -0.488453	 0.057968	 1.132425
C	 -0.451170	 -1.129930	 1.097049
C	 0.801727	 -1.959116	 0.945507
O	 -1.528589	 -1.897310	 1.185968
C	 1.124911	 -2.785238	 2.184071
H	 1.613075	 -1.280220	 0.700432
H	 0.669725	 -2.590969	 0.072237
H	 1.272053	 -2.149836	 3.048928
H	 2.030738	 -3.360307	 2.024106
H	 0.320287	 -3.472711	 2.414906
C	 -2.787809	 -1.248919	 1.332096
C	 -2.814507	 -0.613883	 2.706260
H	 -3.576338	 -1.979580	 1.214030
H	 -2.897761	 -0.511542	 0.548657
H	 -2.697780	 -1.364727	 3.479414
H	 -3.761293	 -0.106451	 2.860394
H	 -2.015552	 0.111420	 2.810486

2 4 11 13 F

11 4 2 3 F

