%nprocshared=1
%mem=2GB
#HF/6-31G* nosymm scf=tight 

Mol

0 1
H	 1.148083	 -1.049780	 0.784252
O	 1.319262	 -0.618148	 -0.041729
C	 0.709265	 0.639550	 -0.033818
C	 0.625041	 1.276071	 1.328653
H	 -0.289237	 0.493845	 -0.430010
H	 1.217867	 1.320628	 -0.715347
C	 0.927817	 0.683447	 2.466145
H	 0.281930	 2.299176	 1.332566
H	 1.255114	 -0.339812	 2.501443
H	 0.844681	 1.199956	 3.405444

5 3 4 7 F

3 4 7 9 F

