%nprocshared=1
%mem=2GB
#HF/6-31G* nosymm scf=tight 

Mol

0 1
O	 1.193023	 1.330472	 -0.955394
C	 0.140502	 1.681556	 -1.381988
C	 -1.132561	 0.871331	 -1.354793
O	 -0.054281	 2.863688	 -1.952602
C	 -1.412532	 0.227344	 -0.000452
H	 -1.943418	 1.530676	 -1.652331
H	 -1.057793	 0.122680	 -2.138812
C	 -0.923673	 1.088704	 1.165070
H	 -0.937089	 -0.747845	 0.037821
H	 -2.478579	 0.046956	 0.097054
C	 0.597114	 1.071815	 1.313150
H	 -1.260725	 2.113915	 1.025734
H	 -1.379607	 0.741298	 2.090005
H	 1.081933	 1.446382	 0.416320
H	 0.917297	 1.690130	 2.145883
H	 0.962130	 0.064071	 1.488809
C	 1.065166	 3.726192	 -2.042424
H	 1.444631	 3.960080	 -1.058153
H	 0.709774	 4.621320	 -2.528624
H	 1.850932	 3.269393	 -2.626729

9 5 8 12 F

1 2 3 6 F

1 2 4 17 F

