%nprocshared=1
%mem=2GB
#HF/6-31G* nosymm scf=tight 

Mol

0 1
H	 0.520913	 -3.355335	 -0.750069
O	 0.895837	 -2.618051	 -0.278264
C	 0.102382	 -1.563045	 -0.462125
C	 0.624473	 -0.343591	 0.253101
O	 -0.886133	 -1.623171	 -1.118051
C	 -0.265902	 0.883932	 0.072916
H	 0.740303	 -0.614115	 1.297502
H	 1.628992	 -0.158063	 -0.118751
C	 -1.728698	 0.646073	 0.462102
H	 -0.209144	 1.219470	 -0.958188
H	 0.135059	 1.692851	 0.673903
C	 -2.743340	 1.532555	 -0.265640
H	 -1.824830	 0.816107	 1.531966
H	 -1.982504	 -0.400481	 0.299428
C	 -2.518522	 1.563141	 -1.777261
H	 -3.748495	 1.171484	 -0.057470
H	 -2.697385	 2.548572	 0.117742
H	 -3.247687	 2.198314	 -2.270401
H	 -2.601707	 0.568618	 -2.206018
H	 -1.530458	 1.944758	 -2.018785

16 12 9 6 F

7 4 6 10 F

5 3 4 7 F

1 2 3 5 F

