%nprocshared=1
%mem=2GB
#HF/6-31G* nosymm scf=tight 

Mol

0 1
H	 -2.273092	 1.173159	 0.000295
O	 -1.438904	 1.618192	 0.000114
C	 -0.409536	 0.736003	 0.000030
C	 0.202314	 0.494655	 -1.220048
C	 0.023751	 0.095820	 1.159068
H	 -0.163266	 1.009538	 -2.089091
C	 1.258783	 -0.392665	 -1.297801
C	 1.087986	 -0.791197	 1.051398
C	 -0.645239	 0.360395	 2.489278
H	 1.729200	 -0.575530	 -2.247413
C	 1.708577	 -1.042156	 -0.159458
H	 1.434627	 -1.293876	 1.937683
H	 -1.699551	 0.091765	 2.474892
H	 -0.178923	 -0.221177	 3.274326
H	 -0.573305	 1.406537	 2.779810
H	 2.529751	 -1.733572	 -0.212522
