%nprocshared=24
%mem=2GB
#HF/6-31G* nosymm scf=tight 

Mol

0 1
H	 -2.455504	 -1.062989	 3.255514
C	 -2.425350	 -0.963885	 2.187839
C	 -1.271134	 -0.975404	 1.562018
H	 -3.351856	 -0.856911	 1.655811
O	 -1.149489	 -1.419931	 0.283558
H	 -0.362059	 -0.618219	 2.012790
C	 0.124718	 -1.564631	 -0.243041
C	 0.804652	 -0.228179	 -0.437663
H	 0.120845	 -2.083299	 -1.195230
H	 0.710361	 -2.134339	 0.463317
F	 0.634885	 0.514770	 0.646317
F	 2.106108	 -0.363370	 -0.631995
F	 0.311691	 0.433097	 -1.464353

11 8 7 9 F

3 5 7 9 F

6 3 5 7 F

