%nprocshared=1
%mem=2GB
#HF/6-31G* nosymm scf=tight 

Mol

0 1
H	 -1.541851	 0.685535	 -2.223771
C	 -1.150404	 0.362955	 -1.279251
C	 -1.935162	 0.420161	 -0.079916
C	 0.098498	 -0.110465	 -1.181605
H	 -2.942140	 0.795597	 -0.125606
C	 -1.423805	 0.010948	 1.089923
H	 0.750103	 -0.185808	 -2.031393
N	 0.640212	 -0.532897	 -0.000111
H	 -1.980480	 0.039007	 2.006264
C	 -0.064777	 -0.504215	 1.195901
C	 2.010177	 -1.032049	 0.000042
O	 0.431496	 -0.881811	 2.228055
H	 2.187698	 -1.635381	 -0.882279
H	 2.677579	 -0.189247	 -0.001871
H	 2.188882	 -1.632203	 0.884288
