%nprocshared=1
%mem=2GB
#HF/6-31G* nosymm scf=tight 

Mol

0 1
H	 -0.188417	 3.063274	 -0.433595
C	 0.506362	 2.288849	 -0.085382
C	 0.065331	 0.871482	 -0.349150
O	 1.521605	 2.594911	 0.450645
C	 -1.339775	 0.583656	 0.198860
H	 0.801961	 0.199421	 0.075851
H	 0.065316	 0.729746	 -1.428998
C	 -1.808407	 -0.848507	 -0.061364
H	 -2.036183	 1.280685	 -0.256307
H	 -1.360094	 0.788874	 1.267089
H	 -1.828843	 -1.063152	 -1.125336
H	 -2.808409	 -1.004529	 0.329750
H	 -1.153967	 -1.577789	 0.406873

6 3 2 4 F

