%nprocshared=1
%mem=2GB
#HF/6-31G* nosymm scf=tight 

Mol

0 1
O	 -2.439739	 -0.935931	 -0.423848
C	 -1.921153	 0.064240	 -0.045697
C	 -2.624470	 1.379923	 0.150949
O	 -0.632575	 0.154573	 0.251549
H	 -2.168117	 2.136577	 -0.476876
H	 -3.669540	 1.273223	 -0.098610
H	 -2.519365	 1.700893	 1.180846
C	 0.160891	 -1.019931	 0.106212
C	 1.589627	 -0.672828	 0.480843
H	 0.089836	 -1.367806	 -0.916050
H	 -0.238459	 -1.792301	 0.749618
C	 2.246377	 0.346236	 -0.452210
H	 2.163194	 -1.597435	 0.473358
H	 1.604769	 -0.303424	 1.502885
C	 1.225655	 1.127087	 -1.278890
H	 2.841403	 1.040678	 0.137530
H	 2.935729	 -0.166233	 -1.115180
H	 1.715729	 1.841754	 -1.932428
H	 0.540566	 1.678197	 -0.640762
H	 0.634121	 0.461719	 -1.901346

2 4 8 10 F

12 9 8 10 F

1 2 4 8 F

