%nprocshared=1
%mem=2GB
#HF/6-31G* nosymm scf=tight 

Mol

0 1
H	 -3.457960	 0.166880	 1.449720
O	 -3.367910	 -0.300316	 2.267454
C	 -3.043259	 -1.643282	 2.012310
C	 -1.609705	 -1.833855	 1.529264
H	 -3.184960	 -2.163733	 2.950780
H	 -3.740919	 -2.074362	 1.295219
C	 -0.990911	 -0.579979	 0.906562
H	 -1.003263	 -2.161255	 2.369743
H	 -1.602486	 -2.641477	 0.799154
C	 -1.643258	 -0.197459	 -0.424956
H	 0.072483	 -0.743757	 0.755783
H	 -1.084329	 0.253789	 1.602582
C	 -3.176299	 -0.204687	 -0.416480
H	 -1.289722	 0.786691	 -0.727127
H	 -1.299997	 -0.890468	 -1.190209
C	 -3.813306	 -1.586322	 -0.243888
H	 -3.516562	 0.437484	 0.393244
H	 -3.542932	 0.249294	 -1.335891
C	 -5.338620	 -1.530185	 -0.135715
H	 -3.407976	 -2.059469	 0.649392
H	 -3.544000	 -2.229497	 -1.078215
C	 -5.977485	 -2.908586	 0.030194
H	 -5.616754	 -0.900189	 0.706446
H	 -5.744775	 -1.048953	 -1.023037
H	 -5.615868	 -3.402867	 0.927492
H	 -7.058002	 -2.835238	 0.105953
H	 -5.748450	 -3.551637	 -0.815023

14 10 7 4 F

14 10 13 16 F

10 7 4 8 F

10 13 16 20 F

20 16 19 22 F

4 3 2 1 F

