%nprocshared=1
%mem=2GB
#HF/6-31G* nosymm scf=tight 

Mol

0 1
H	 0.748973	 0.187877	 2.370836
C	 -0.214392	 0.206753	 1.880045
O	 0.000000	 0.000000	 0.521119
H	 -0.842901	 -0.572826	 2.307739
H	 -0.686248	 1.170072	 2.067281
C	 -1.165642	 0.000000	 -0.238270
H	 -1.228672	 0.883184	 -0.872070
H	 -2.003012	 0.000000	 0.445920
H	 -1.228672	 -0.883184	 -0.872070
