%nprocshared=1
%mem=2GB
#HF/6-31G* nosymm scf=tight 

Mol

0 1
H	 -1.070890	 -1.366565	 0.180696
O	 -1.422729	 -0.573567	 -0.196946
C	 -0.731407	 0.539437	 0.309156
C	 0.680193	 0.672443	 -0.251532
H	 -1.319765	 1.404033	 0.030086
H	 -0.700012	 0.506517	 1.397677
C	 1.769975	 0.206726	 0.714483
H	 0.741195	 0.102164	 -1.173869
H	 0.846927	 1.715807	 -0.510631
H	 1.676022	 -0.851788	 0.937903
H	 2.757105	 0.357906	 0.290591
H	 1.727365	 0.755098	 1.652425

1 2 3 4 F

