%nprocshared=1
%mem=2GB
#HF/6-31G* nosymm scf=tight 

Mol

0 1
O	 -2.821601	 1.309235	 -0.001213
C	 -2.668563	 0.129746	 -0.000350
C	 -3.801572	 -0.864014	 -0.000442
O	 -1.481751	 -0.454642	 0.000584
H	 -4.417280	 -0.689587	 -0.874708
H	 -3.443784	 -1.883046	 -0.000565
H	 -4.417179	 -0.689832	 0.873954
C	 -0.334255	 0.388708	 0.000906
C	 0.891947	 -0.504646	 0.000751
H	 -0.365390	 1.025305	 -0.873475
H	 -0.365484	 1.024911	 0.875569
C	 0.531901	 -1.976868	 0.209077
H	 1.568419	 -0.172548	 0.783398
H	 1.417316	 -0.379702	 -0.942031
C	 1.755652	 -2.894881	 0.212741
H	 -0.003616	 -2.090796	 1.149996
H	 -0.153827	 -2.297876	 -0.573107
C	 1.396097	 -4.365163	 0.422162
H	 2.441798	 -2.575729	 0.994035
H	 2.290702	 -2.784019	 -0.727738
H	 0.889087	 -4.513640	 1.371325
H	 2.283502	 -4.990258	 0.420092
H	 0.737152	 -4.723585	 -0.363545

2 4 8 10 F

16 12 9 13 F

19 15 12 16 F

1 2 4 8 F

