%nprocshared=1
%mem=2GB
#HF/6-31G* nosymm scf=tight 

Mol

0 1
H	 -2.273092	 1.173159	 0.000295
O	 -1.438904	 1.618192	 0.000114
C	 -0.409536	 0.736003	 0.000030
C	 0.338440	 0.653264	 1.164025
C	 -0.105604	 -0.054901	 -1.105881
H	 0.069857	 1.281166	 1.993238
C	 1.403503	 -0.224043	 1.238072
C	 0.970546	 -0.928036	 -1.003284
C	 -0.922827	 0.036958	 -2.375020
H	 1.979859	 -0.283471	 2.144039
C	 1.726215	 -1.021605	 0.151919
H	 1.218291	 -1.545944	 -1.848954
H	 -0.891683	 1.034917	 -2.807515
H	 -0.544286	 -0.646886	 -3.124046
H	 -1.966818	 -0.218985	 -2.205981
H	 2.553254	 -1.706188	 0.202437
