%nprocshared=1
%mem=2GB
#HF/6-31G* nosymm scf=tight 

Mol

0 1
H	 -1.173203	 3.995549	 0.288327
O	 -1.157426	 3.057472	 0.412633
C	 0.039124	 2.531911	 -0.104302
C	 0.031547	 1.023609	 0.088541
H	 0.896779	 2.955341	 0.415337
H	 0.142805	 2.783453	 -1.157430
C	 -1.134819	 0.293262	 -0.585751
H	 0.004439	 0.822698	 1.155868
H	 0.976678	 0.630948	 -0.282625
C	 -1.917817	 -0.639439	 0.339494
H	 -0.758119	 -0.268455	 -1.433105
H	 -1.813832	 1.041889	 -0.986690
H	 -2.777680	 -1.057197	 -0.174994
H	 -1.310268	 -1.471279	 0.680599
H	 -2.283753	 -0.111424	 1.216626

2 3 4 8 F

1 2 3 4 F

