%nprocshared=1
%mem=2GB
#HF/6-31G* nosymm scf=tight 
prop=(read,field)

Mol

0 1
H	 -2.172230	 0.880146	 0.502451
C	 -2.018142	 -0.000025	 -0.114572
O	 -0.774134	 0.001095	 -0.743244
H	 -2.760570	 0.003458	 -0.901413
H	 -2.173704	 -0.884374	 0.496100
C	 0.406873	 0.000033	 0.038902
C	 1.527204	 -0.003667	 -0.998815
C	 0.498853	 1.262172	 0.902461
C	 0.494191	 -1.259566	 0.906601
H	 1.452433	 0.873252	 -1.631945
H	 1.448783	 -0.881882	 -1.629658
H	 2.501940	 -0.005104	 -0.521794
H	 0.364200	 2.147110	 0.289450
H	 1.472100	 1.321775	 1.378737
H	 -0.247933	 1.275162	 1.689034
H	 0.356698	 -2.146106	 0.296524
H	 1.467102	 -1.320941	 1.383267
H	 -0.252843	 -1.267328	 1.693056

@grid.dat /N
