%nprocshared=1
%mem=2GB
#HF/6-31G* nosymm scf=tight 
prop=(read,field)

Mol

0 1
H	 1.335579	 -0.874657	 -1.332780
C	 1.288168	 0.000126	 -0.690659
C	 -0.000000	 0.000000	 0.104598
H	 2.133895	 0.000719	 -0.017369
H	 1.334986	 0.874250	 -1.333754
C	 -1.288168	 -0.000126	 -0.690659
O	 -0.000000	 -0.000000	 1.296671
H	 -1.334986	 -0.874250	 -1.333755
H	 -2.133895	 -0.000719	 -0.017369
H	 -1.335579	 0.874657	 -1.332780

@grid.dat /N
