%nprocshared=1
%mem=2GB
#HF/6-31G* nosymm scf=tight 

Mol

0 1
H	 -1.645228	 2.524172	 -0.290061
C	 -0.623028	 2.164135	 -0.300221
C	 -0.603454	 0.661669	 0.000000
H	 -0.058723	 2.715504	 0.442069
H	 -0.197242	 2.370669	 -1.274639
C	 0.763625	 0.112519	 0.000000
H	 -1.043655	 0.458321	 0.969248
H	 -1.181296	 0.115671	 -0.736582
N	 1.813038	 -0.320305	 0.000000
