%nprocshared=1
%mem=2GB
#HF/6-31G* nosymm scf=tight 

Mol

0 1
H	 6.249680	 -0.195876	 0.699949
C	 6.054271	 -1.155692	 1.168021
C	 7.091756	 -2.196259	 0.748472
H	 6.064724	 -1.007298	 2.243759
H	 5.051067	 -1.463357	 0.885668
C	 6.841329	 -3.564718	 1.385983
H	 8.081704	 -1.845604	 1.021686
H	 7.081555	 -2.297225	 -0.335684
C	 5.391537	 -4.037839	 1.278628
H	 7.488006	 -4.303837	 0.926465
H	 7.109243	 -3.520357	 2.439214
C	 4.964761	 -4.436609	 -0.126394
H	 5.243460	 -4.914140	 1.907866
H	 4.707201	 -3.283253	 1.660021
C	 3.475324	 -4.538016	 -0.405696
O	 5.765727	 -4.680326	 -0.978133
C	 3.142513	 -5.197708	 -1.752249
H	 3.077758	 -3.530724	 -0.373804
H	 3.010537	 -5.105855	 0.398180
C	 3.906992	 -6.506058	 -1.962969
H	 2.073565	 -5.394231	 -1.800676
H	 3.371148	 -4.517137	 -2.568350
C	 3.584233	 -7.172245	 -3.299729
H	 3.675183	 -7.191428	 -1.151430
H	 4.975620	 -6.311267	 -1.903941
H	 2.526789	 -7.408725	 -3.374670
H	 3.837980	 -6.523738	 -4.133494
H	 4.139105	 -8.097216	 -3.419829

10 6 3 2 F

12 15 17 21 F

