%nprocshared=1
%mem=2GB
#HF/6-31G* nosymm scf=tight 

Mol

0 1
H	 -0.944757	 -0.000069	 1.678017
O	 -0.042387	 -0.000390	 1.388199
C	 -0.001487	 0.000018	 -0.026623
C	 1.116825	 -0.927042	 -0.506809
C	 -1.355899	 -0.449400	 -0.578199
C	 0.288898	 1.444991	 -0.416688
H	 1.202340	 -0.917129	 -1.588699
H	 0.926556	 -1.952990	 -0.199996
H	 2.066523	 -0.620358	 -0.082502
H	 -1.370489	 -0.422080	 -1.663155
H	 -1.579359	 -1.468377	 -0.270493
H	 -2.145001	 0.194507	 -0.205937
H	 0.341563	 1.553583	 -1.495196
H	 1.232634	 1.765698	 0.009925
H	 -0.490405	 2.098253	 -0.040751
