%nprocshared=1
%mem=2GB
#HF/6-31G* nosymm scf=tight 

Mol

0 1
H	 -2.240291	 0.559484	 0.604969
C	 -2.008299	 -0.205926	 -0.129530
O	 -0.774054	 0.001095	 -0.743181
H	 -2.752932	 -0.160639	 -0.912984
H	 -2.076115	 -1.178578	 0.348530
C	 -0.053691	 1.193139	 -0.485032
C	 1.313654	 0.931869	 -1.112818
C	 -0.717390	 2.397217	 -1.160968
C	 0.099540	 1.431449	 1.020572
H	 1.206048	 0.736376	 -2.173777
H	 1.774511	 0.063536	 -0.655670
H	 1.973067	 1.783782	 -0.982126
H	 -0.887065	 2.191059	 -2.212510
H	 -0.078888	 3.271214	 -1.083226
H	 -1.668673	 2.649548	 -0.704958
H	 0.504110	 0.547090	 1.501492
H	 0.777063	 2.259209	 1.203078
H	 -0.845143	 1.675611	 1.494483

2 3 6 7 F

