%nprocshared=1
%mem=2GB
#HF/6-31G* nosymm scf=tight 

Mol

0 1
H	 -2.095764	 0.435638	 -2.350391
C	 -2.795213	 1.048318	 -1.768139
C	 -2.660244	 0.921717	 -0.272021
O	 -3.583432	 1.744001	 -2.321751
C	 -1.456793	 0.062428	 0.139782
H	 -2.602559	 1.917609	 0.151748
H	 -3.574654	 0.455846	 0.093321
C	 -1.608027	 -1.415859	 -0.227771
H	 -0.568048	 0.463850	 -0.338002
H	 -1.293745	 0.159313	 1.212063
C	 -0.396781	 -2.257835	 0.178154
H	 -1.766662	 -1.501365	 -1.300791
H	 -2.501398	 -1.823357	 0.241668
C	 -0.544486	 -3.732653	 -0.205308
H	 0.493530	 -1.840137	 -0.285101
H	 -0.247779	 -2.179762	 1.254299
C	 0.608897	 -4.631648	 0.254680
H	 -0.654427	 -3.814652	 -1.285532
H	 -1.469743	 -4.112444	 0.222911
C	 1.952015	 -4.334672	 -0.414244
H	 0.340103	 -5.665285	 0.051475
H	 0.717672	 -4.553812	 1.334509
H	 1.869406	 -4.389335	 -1.496582
H	 2.323235	 -3.347449	 -0.160153
H	 2.703875	 -5.054110	 -0.104229

6 3 5 8 F

3 5 8 12 F

12 8 11 14 F

8 11 14 18 F

20 17 14 18 F

