%nprocshared=1
%mem=2GB
#HF/6-31G* nosymm scf=tight 

Mol

0 1
H	 0.279747	 -5.787510	 -1.234136
C	 0.615369	 -4.766943	 -1.080671
C	 -0.557158	 -3.788471	 -1.132973
H	 1.117683	 -4.726520	 -0.118240
H	 1.351923	 -4.543149	 -1.847256
C	 -0.127859	 -2.340084	 -0.922563
H	 -1.292884	 -4.044299	 -0.376898
H	 -1.057954	 -3.877989	 -2.095565
N	 -1.268658	 -1.446027	 -0.948991
H	 0.348796	 -2.245108	 0.049417
H	 0.629834	 -2.070939	 -1.666095
C	 -1.217365	 -0.386708	 0.039277
H	 -1.355622	 -1.044301	 -1.863373
C	 -2.452633	 0.504241	 -0.042481
H	 -1.172857	 -0.848333	 1.022069
H	 -0.315698	 0.227728	 -0.054795
C	 -3.758029	 -0.289423	 -0.010781
H	 -2.394220	 1.093569	 -0.952170
H	 -2.440793	 1.210787	 0.785871
H	 -3.816659	 -0.981993	 -0.845726
H	 -4.617837	 0.370165	 -0.069296
H	 -3.847478	 -0.867502	 0.904682

15 12 14 18 F

