%nprocshared=1
%mem=2GB
#HF/6-31G* nosymm scf=tight 

Mol

0 1
H	 -0.490322	 -1.639574	 -0.154789
N	 -0.626943	 -0.667432	 -0.000092
C	 -1.979713	 -0.158776	 0.000050
C	 0.462941	 0.112159	 0.201298
H	 -2.520245	 -0.492427	 -0.879443
H	 -1.934741	 0.918111	 -0.004428
H	 -2.517790	 -0.485056	 0.883818
C	 1.783894	 -0.629686	 0.159654
O	 0.398610	 1.294443	 0.396949
H	 1.925982	 -1.104368	 -0.806184
H	 2.584801	 0.073239	 0.333269
H	 1.813407	 -1.402948	 0.920923

3 2 4 9 F

