%nprocshared=1
%mem=2GB
#HF/6-31G* nosymm scf=tight 

Mol

0 1
H	 -3.457960	 0.166880	 1.449720
O	 -3.367910	 -0.300316	 2.267454
C	 -3.043259	 -1.643282	 2.012310
C	 -1.609705	 -1.833855	 1.529264
H	 -3.184960	 -2.163733	 2.950780
H	 -3.740919	 -2.074362	 1.295219
C	 -1.314720	 -1.174099	 0.179978
H	 -0.935821	 -1.437562	 2.284379
H	 -1.414703	 -2.902721	 1.459510
C	 -1.493661	 0.346320	 0.213489
H	 -1.968475	 -1.599791	 -0.576168
H	 -0.293275	 -1.406939	 -0.121314
C	 -0.840832	 1.045264	 1.411667
H	 -1.103265	 0.773133	 -0.708612
H	 -2.558497	 0.569328	 0.223149
C	 -1.467240	 0.716173	 2.769529
H	 0.210640	 0.766859	 1.438389
H	 -0.863695	 2.122721	 1.255457
C	 -0.717380	 1.352424	 3.941848
H	 -1.489003	 -0.364561	 2.902385
H	 -2.502714	 1.047070	 2.794091
C	 -1.344345	 1.030768	 5.297988
H	 0.316692	 1.014616	 3.933512
H	 -0.686182	 2.431507	 3.805863
H	 -1.360455	 -0.040426	 5.478284
H	 -0.789501	 1.493924	 6.108093
H	 -2.368552	 1.389192	 5.351800

14 10 7 4 F

14 10 13 16 F

8 4 3 2 F

10 13 16 20 F

20 16 19 22 F

4 3 2 1 F

