%nprocshared=1
%mem=2GB
#HF/6-31G* nosymm scf=tight 

Mol

0 1
H	 -3.489899	 1.228218	 -1.029938
O	 -3.452007	 0.283848	 -0.965577
C	 -3.181085	 -0.079926	 0.364119
C	 -1.765924	 0.277073	 0.805136
H	 -3.327791	 -1.152017	 0.410903
H	 -3.905698	 0.375695	 1.036898
C	 -1.689642	 1.562042	 1.630699
H	 -1.353056	 -0.553283	 1.378731
H	 -1.143788	 0.370195	 -0.083399
C	 -2.027171	 2.816234	 0.821838
H	 -0.694089	 1.655528	 2.053599
H	 -2.373153	 1.482151	 2.474395
C	 -3.307174	 2.662859	 -0.004089
H	 -2.122149	 3.660099	 1.501022
H	 -1.197757	 3.051961	 0.156173
C	 -3.216436	 1.642418	 -1.144537
H	 -3.590177	 3.631974	 -0.412036
H	 -4.116310	 2.366479	 0.660195
C	 -4.558036	 1.287162	 -1.788206
H	 -2.764574	 0.732488	 -0.757061
H	 -2.537213	 2.016091	 -1.908230
H	 -5.262393	 0.922025	 -1.045445
H	 -4.433338	 0.508587	 -2.534603
H	 -5.010696	 2.140644	 -2.281998

20 16 13 17 F

17 13 10 7 F

13 10 7 11 F

11 7 4 3 F

1 2 3 5 F

