%nprocshared=1
%mem=2GB
#HF/6-31G* nosymm scf=tight 

Mol

0 1
O	 -0.921199	 -0.778429	 2.131101
C	 -0.451170	 -1.129930	 1.097049
C	 0.801727	 -1.959116	 0.945507
O	 -0.976497	 -0.831194	 -0.082949
C	 1.124911	 -2.785238	 2.184071
H	 1.613075	 -1.280220	 0.700432
H	 0.669725	 -2.590969	 0.072237
H	 1.272053	 -2.149836	 3.048928
H	 2.030738	 -3.360307	 2.024106
H	 0.320287	 -3.472711	 2.414906
C	 -2.166099	 -0.048814	 -0.094377
C	 -3.279056	 -0.906919	 0.468912
H	 -2.374704	 0.260715	 -1.109394
H	 -2.008312	 0.841499	 0.498950
H	 -3.420890	 -1.797091	 -0.133279
H	 -4.208563	 -0.346940	 0.478389
H	 -3.052618	 -1.213139	 1.483905

2 4 11 13 F

11 4 2 3 F

