%nprocshared=1
%mem=2GB
#HF/6-31G* nosymm scf=tight 

Mol

0 1
O	 0.777062	 2.002247	 0.350618
C	 -0.174557	 2.181891	 1.039959
C	 -1.441121	 1.361345	 1.019629
O	 -0.246271	 3.154255	 1.940148
C	 -1.412532	 0.227344	 -0.000452
H	 -1.598351	 0.981997	 2.025675
H	 -2.266093	 2.042231	 0.828398
C	 -2.706999	 -0.587347	 -0.000541
H	 -0.568674	 -0.422483	 0.209626
H	 -1.236876	 0.639265	 -0.989376
C	 -3.956778	 0.291888	 0.000910
H	 -2.726114	 -1.239230	 -0.871609
H	 -2.725217	 -1.240844	 0.869333
H	 -3.985213	 0.933254	 -0.875158
H	 -4.860123	 -0.309979	 0.000519
H	 -3.984618	 0.931166	 0.878514
C	 0.881547	 4.001817	 2.061832
H	 1.755167	 3.433333	 2.346616
H	 0.632604	 4.715605	 2.831562
H	 1.077267	 4.510245	 1.128718

1 2 3 6 F

9 5 3 6 F

1 2 4 17 F

