%nprocshared=1
%mem=2GB
#HF/6-31G* nosymm scf=tight 

Mol

0 1
O	 -2.494170	 -1.757757	 1.478204
C	 -1.514987	 -1.440192	 0.882411
C	 -0.176737	 -2.113537	 1.046607
O	 -1.481751	 -0.454642	 0.000584
H	 -0.285485	 -3.165638	 0.811830
H	 0.577258	 -1.671644	 0.412051
H	 0.125276	 -2.038890	 2.084439
C	 -0.334255	 0.388708	 0.000906
C	 0.891947	 -0.504646	 0.000751
H	 -0.365390	 1.025305	 -0.873475
H	 -0.365484	 1.024911	 0.875569
C	 0.838286	 -1.556101	 -1.109219
H	 0.972990	 -0.989855	 0.969484
H	 1.777328	 0.114301	 -0.115286
C	 -0.165550	 -2.674382	 -0.822711
H	 0.580561	 -1.076907	 -2.052106
H	 1.827151	 -1.989778	 -1.247612
C	 -1.569591	 -2.151369	 -0.522723
H	 0.186978	 -3.266682	 0.018705
H	 -0.205447	 -3.348458	 -1.675412
H	 -1.568128	 -1.500106	 0.346683
H	 -2.257858	 -2.966803	 -0.323744
H	 -1.963632	 -1.582803	 -1.360264

13 9 8 10 F

2 4 8 10 F

16 12 9 13 F

19 15 12 16 F

