%nprocshared=1
%mem=2GB
#HF/6-31G* nosymm scf=tight 

Mol

0 1
O	 -0.584884	 -1.147516	 -1.483191
C	 -0.488006	 -0.138326	 -0.837550
C	 -1.612827	 0.879924	 -0.843144
N	 0.623947	 0.147590	 -0.102813
H	 -1.275114	 1.843240	 -1.209279
H	 -2.385197	 0.503718	 -1.496565
H	 -2.026144	 1.023192	 0.149441
C	 1.665360	 -0.855771	 0.000151
C	 0.703962	 1.224194	 0.859874
H	 2.465253	 -0.618490	 -0.692587
H	 1.257730	 -1.821716	 -0.242189
H	 2.081488	 -0.891645	 1.004627
H	 1.721502	 1.595089	 0.892867
H	 0.064979	 2.048979	 0.587175
H	 0.434621	 0.894352	 1.861609

8 4 2 3 F

