%nprocshared=1
%mem=2GB
#HF/6-31G* nosymm scf=tight 

Mol

0 1
H	 -2.698709	 -0.000305	 0.034435
C	 -1.693833	 0.000034	 0.434417
O	 -0.828952	 -0.000968	 -0.659236
H	 -1.574200	 0.882896	 1.055746
H	 -1.574147	 -0.881698	 1.057355
C	 -0.579245	 -1.219689	 -1.320197
C	 0.336384	 -2.143076	 -0.519012
C	 -1.862688	 -1.918108	 -1.765106
H	 -0.043420	 -0.911871	 -2.210237
H	 1.211674	 -1.601058	 -0.177498
H	 0.668141	 -2.968052	 -1.141577
H	 -0.163206	 -2.567810	 0.345959
H	 -2.509783	 -1.220242	 -2.285403
H	 -1.626148	 -2.732873	 -2.442359
H	 -2.412880	 -2.338319	 -0.929311

9 6 3 2 F

