%nprocshared=1
%mem=2GB
#HF/6-31G* nosymm scf=tight 

Mol

0 1
H	 -4.412104	 -0.520489	 -2.970220
C	 -4.565201	 -0.073151	 -1.980234
C	 -5.553627	 1.064424	 -1.940897
O	 -3.971673	 -0.489042	 -1.038687
C	 -5.034273	 2.268080	 -1.142311
H	 -5.800270	 1.338704	 -2.960037
H	 -6.459108	 0.685183	 -1.468737
C	 -4.902224	 1.994114	 0.357958
H	 -4.066674	 2.555076	 -1.543145
H	 -5.693175	 3.119942	 -1.303359
C	 -6.253274	 1.803461	 1.050150
H	 -4.368179	 2.819190	 0.824746
H	 -4.288950	 1.109527	 0.519018
C	 -7.144331	 3.045428	 0.963640
H	 -6.759475	 0.950440	 0.605350
H	 -6.089580	 1.551128	 2.097010
C	 -8.476090	 2.930578	 1.714174
H	 -7.340708	 3.275648	 -0.082366
H	 -6.595566	 3.895780	 1.362978
C	 -9.441535	 1.892099	 1.140506
H	 -8.962502	 3.902772	 1.700334
H	 -8.281521	 2.704290	 2.760528
H	 -9.641833	 2.084110	 0.089658
H	 -9.050397	 0.883621	 1.223924
H	 -10.390864	 1.916855	 1.666962

6 3 5 8 F

6 3 2 4 F

3 5 8 12 F

8 11 14 18 F

20 17 14 18 F

