%nprocshared=1
%mem=2GB
#HF/6-31G* nosymm scf=tight 

Mol

0 1
H	 -3.650283	 0.221984	 0.000000
C	 -2.577024	 0.154109	 0.000000
C	 -1.960329	 -1.089307	 0.000000
C	 -1.811733	 1.307557	 0.000000
H	 -2.554473	 -1.985285	 0.000000
C	 -0.581547	 -1.175855	 0.000000
H	 -2.287118	 2.271701	 0.000000
C	 -0.428719	 1.219221	 0.000000
H	 -0.090826	 -2.129898	 0.000000
C	 0.198341	 -0.021559	 0.000000
H	 0.149947	 2.124040	 0.000000
C	 1.691355	 -0.173192	 0.000000
C	 2.298424	 -1.484743	 -0.452597
O	 2.393587	 0.728042	 0.352169
H	 1.957699	 -2.305077	 0.170893
H	 3.373962	 -1.406616	 -0.384752
H	 2.018300	 -1.708381	 -1.476949
