%nprocshared=1
%mem=2GB
#HF/6-31G* nosymm scf=tight 

Mol

0 1
H	 -3.135461	 -1.215070	 0.001379
O	 -2.310168	 -0.871793	 -0.309793
C	 -2.026376	 0.340750	 0.341611
C	 -0.673256	 0.843270	 -0.132153
H	 -2.792215	 1.080697	 0.115987
H	 -2.013526	 0.200402	 1.421792
C	 0.486613	 -0.083066	 0.235839
H	 -0.715586	 0.970948	 -1.210718
H	 -0.508072	 1.829858	 0.297090
C	 0.611305	 -0.312001	 1.743106
H	 1.411486	 0.335699	 -0.147253
H	 0.351057	 -1.042375	 -0.262350
C	 1.173716	 0.900054	 2.484920
H	 -0.366076	 -0.561685	 2.150663
H	 1.248095	 -1.174969	 1.928117
H	 0.539617	 1.771245	 2.347677
H	 1.248747	 0.709823	 3.551282
H	 2.166276	 1.154910	 2.123833

14 10 7 11 F

2 3 4 8 F

1 2 3 4 F

