%nprocshared=1
%mem=2GB
#HF/6-31G* nosymm scf=tight 

Mol

0 1
O	 1.147227	 1.407224	 -0.812524
C	 0.140502	 1.681556	 -1.381988
C	 -1.132561	 0.871331	 -1.354793
O	 0.004331	 2.765460	 -2.135371
C	 -1.412532	 0.227344	 -0.000452
H	 -1.943418	 1.530676	 -1.652331
H	 -1.057793	 0.122680	 -2.138812
C	 -2.706999	 -0.587347	 -0.000541
H	 -1.464140	 1.000268	 0.760093
H	 -0.576961	 -0.409417	 0.273154
C	 -3.956778	 0.291888	 0.000910
H	 -2.726114	 -1.239230	 -0.871609
H	 -2.725217	 -1.240844	 0.869333
H	 -3.985213	 0.933254	 -0.875158
H	 -4.860123	 -0.309979	 0.000519
H	 -3.984618	 0.931166	 0.878514
C	 1.130499	 3.616697	 -2.246191
H	 1.417197	 3.995878	 -1.275875
H	 0.825458	 4.427446	 -2.889298
H	 1.965712	 3.087204	 -2.681580

9 5 8 12 F

9 5 3 6 F

1 2 4 17 F

