%nprocshared=1
%mem=2GB
#HF/6-31G* nosymm scf=tight 

Mol

0 1
H	 -1.415825	 1.032756	 2.124055
C	 -1.077849	 0.562854	 1.221630
C	 -1.930396	 0.433290	 0.075375
C	 0.165412	 0.073895	 1.128694
H	 -2.934707	 0.816073	 0.118745
C	 -1.485256	 -0.158363	 -1.042328
H	 0.865045	 0.130877	 1.940896
N	 0.640212	 -0.532897	 -0.000111
H	 -2.093715	 -0.272981	 -1.918111
C	 -0.132320	 -0.690310	 -1.143217
C	 2.010177	 -1.032049	 0.000042
O	 0.305597	 -1.228684	 -2.129415
H	 2.187698	 -1.635381	 -0.882279
H	 2.677579	 -0.189247	 -0.001871
H	 2.188882	 -1.632203	 0.884288
