%nprocshared=1
%mem=2GB
#HF/6-31G* nosymm scf=tight 

Mol

0 1
O	 -0.644987	 -1.652990	 1.664992
C	 -1.514987	 -1.440192	 0.882411
C	 -2.775474	 -2.260464	 0.784449
O	 -1.481751	 -0.454642	 0.000584
H	 -3.283566	 -2.233162	 1.740984
H	 -3.433286	 -1.897333	 0.008654
H	 -2.505502	 -3.290827	 0.586090
C	 -0.334255	 0.388708	 0.000906
C	 0.891947	 -0.504646	 0.000751
H	 -0.365390	 1.025305	 -0.873475
H	 -0.365484	 1.024911	 0.875569
C	 0.838286	 -1.556101	 -1.109219
H	 0.972990	 -0.989855	 0.969484
H	 1.777328	 0.114301	 -0.115286
C	 -0.547270	 -1.680579	 -1.745668
H	 1.565352	 -1.308225	 -1.880593
H	 1.136217	 -2.523493	 -0.708630
C	 -0.600477	 -2.729840	 -2.855212
H	 -0.846398	 -0.714824	 -2.146809
H	 -1.274703	 -1.930523	 -0.976618
H	 0.092749	 -2.489235	 -3.656187
H	 -1.594419	 -2.794659	 -3.286620
H	 -0.339117	 -3.714101	 -2.477151

13 9 8 10 F

2 4 8 10 F

19 15 12 16 F

1 2 4 8 F

