%nprocshared=24
%mem=2GB
#HF/6-31G* nosymm scf=tight 

Mol

0 1
H	 -2.455504	 -1.062989	 3.255514
C	 -2.425350	 -0.963885	 2.187839
C	 -1.271134	 -0.975404	 1.562018
H	 -3.351856	 -0.856911	 1.655811
O	 -0.094796	 -1.135153	 2.223508
H	 -1.188280	 -0.879474	 0.493782
C	 1.085042	 -0.960098	 1.516977
C	 1.290222	 -2.052115	 0.491456
H	 1.954165	 -0.937805	 2.164916
H	 1.017144	 -0.019682	 0.990201
F	 0.161955	 -2.248535	 -0.175056
F	 2.225029	 -1.730557	 -0.387503
F	 1.637403	 -3.194360	 1.047452

11 8 7 9 F

3 5 7 9 F

6 3 5 7 F

