%nprocshared=1
%mem=2GB
#HF/6-31G* nosymm scf=tight 

Mol

0 1
H	 -0.000158	 1.970498	 0.756846
O	 -0.000074	 1.880206	 -0.189275
C	 -0.000015	 0.544847	 -0.545111
C	 1.432021	 0.023505	 -0.603962
C	 -0.782813	 0.352732	 -1.839838
H	 -0.514181	 -0.003270	 0.230327
F	 1.999361	 0.155202	 0.576007
F	 1.486831	 -1.247128	 -0.942854
F	 2.148698	 0.714511	 -1.476017
F	 -2.024507	 0.753594	 -1.669422
F	 -0.810103	 -0.905784	 -2.224250
F	 -0.257000	 1.071901	 -2.818559

7 4 3 6 F

