%nprocshared=1
%mem=2GB
#HF/6-31G* nosymm scf=tight 

Mol

0 1
H	 -1.684854	 1.667710	 0.056877
N	 -1.411972	 0.729529	 0.276710
C	 0.028465	 0.575103	 0.174736
H	 -1.860448	 0.125394	 -0.384350
C	 0.455173	 0.651305	 -1.276211
H	 0.590864	 1.320952	 0.738134
H	 0.301185	 -0.400990	 0.564155
O	 -0.088814	 -0.446451	 -1.951562
H	 0.101433	 1.579477	 -1.724545
H	 1.540941	 0.633028	 -1.339530
C	 0.295968	 -0.548357	 -3.285402
H	 1.077210	 -1.293847	 -3.345427
H	 -0.534823	 -0.858547	 -3.916710
H	 0.680852	 0.397273	 -3.661511

8 5 3 6 F

6 3 2 4 F

11 8 5 3 F

