%nprocshared=1
%mem=2GB
#HF/6-31G* nosymm scf=tight 

Mol

0 1
H	 -0.944757	 -0.000069	 1.678017
O	 -0.042387	 -0.000390	 1.388199
C	 -0.001487	 0.000018	 -0.026623
C	 1.454394	 -0.000499	 -0.496783
C	 -0.746703	 -1.224702	 -0.560812
C	 -0.704694	 1.286292	 -0.445457
H	 1.521061	 0.042018	 -1.579209
H	 1.965662	 -0.902994	 -0.169654
H	 1.982094	 0.852488	 -0.084518
H	 -0.767903	 -1.233227	 -1.645970
H	 -0.265353	 -2.143167	 -0.232702
H	 -1.767650	 -1.231566	 -0.195440
H	 -0.726625	 1.383356	 -1.526124
H	 -0.190588	 2.146233	 -0.031109
H	 -1.724170	 1.292958	 -0.076650
