%nprocshared=1
%mem=2GB
#HF/6-31G* nosymm scf=tight 

Mol

0 1
H	 -0.752526	 4.083003	 1.419268
N	 -0.296953	 3.265074	 1.062911
C	 -0.586906	 2.107969	 1.897514
H	 0.686493	 3.459138	 1.061241
C	 0.027302	 0.846927	 1.298954
H	 -1.665904	 1.995241	 1.941258
H	 -0.242380	 2.224987	 2.928051
C	 -0.679275	 0.379305	 0.025956
H	 1.076987	 1.039459	 1.096650
H	 -0.002539	 0.049754	 2.041222
C	 -0.791153	 1.473151	 -1.037697
H	 -1.676933	 0.022509	 0.277399
H	 -0.147950	 -0.473707	 -0.393460
C	 -2.115055	 2.234023	 -0.975523
H	 0.033362	 2.173024	 -0.921214
H	 -0.676491	 1.028719	 -2.024099
H	 -2.243718	 2.718807	 -0.011807
H	 -2.163946	 3.002377	 -1.740928
H	 -2.958889	 1.565841	 -1.123406

6 3 5 9 F

12 8 5 9 F

1 2 3 6 F

