%nprocshared=1
%mem=2GB
#HF/6-31G* nosymm scf=tight 

Mol

0 1
O	 -1.993465	 -2.422693	 -4.360854
C	 -1.680073	 -3.409089	 -3.766512
C	 -1.268320	 -3.340370	 -2.306360
C	 -1.707297	 -4.772458	 -4.420622
C	 0.096943	 -2.650502	 -2.153787
H	 -1.203442	 -4.357233	 -1.934763
H	 -2.017742	 -2.813876	 -1.722239
C	 0.149006	 -1.302371	 -2.876593
H	 0.295581	 -2.524234	 -1.095494
H	 0.880230	 -3.297517	 -2.545681
C	 0.075323	 -1.399736	 -4.404711
H	 1.060721	 -0.779480	 -2.593598
H	 -0.676931	 -0.685592	 -2.528370
C	 -1.053427	 -2.288511	 -4.930067
H	 1.023541	 -1.787350	 -4.768483
H	 -0.024340	 -0.400645	 -4.824201
H	 -0.984148	 -3.291584	 -4.518035
H	 -1.004790	 -2.372263	 -6.011279
H	 -2.032469	 -1.894716	 -4.678683
H	 -0.695121	 -5.160763	 -4.497969
H	 -2.140635	 -4.700597	 -5.408467
H	 -2.274973	 -5.476311	 -3.818841

6 3 2 1 F

6 3 5 8 F

3 5 8 12 F

