%nprocshared=1
%mem=2GB
#HF/6-31G* nosymm scf=tight 

Mol

0 1
H	 -0.367348	 2.047014	 -0.308205
C	 0.352277	 1.337084	 0.083769
N	 -0.000016	 0.000074	 -0.335546
H	 1.328359	 1.600444	 -0.307950
H	 0.381933	 1.450534	 1.172486
C	 -1.197833	 -0.473239	 0.319800
C	 -0.092580	 -0.108225	 -1.773551
H	 -1.390405	 -1.501661	 0.035870
H	 -1.064939	 -0.443246	 1.395394
H	 -2.084545	 0.118985	 0.071013
H	 0.847024	 0.188026	 -2.226049
H	 -0.287691	 -1.137399	 -2.053143
H	 -0.885406	 0.515197	 -2.199812
