%nprocshared=1
%mem=2GB
#HF/6-31G* nosymm scf=tight 

Mol

0 1
H	 0.066191	 -4.178932	 -1.199227
O	 -0.476123	 -3.871256	 -1.911700
C	 -1.535064	 -3.105699	 -1.402235
C	 -1.043241	 -2.095136	 -0.381188
H	 -2.076060	 -2.592997	 -2.192690
H	 -2.220236	 -3.793967	 -0.927600
O	 -0.043959	 -1.331029	 -0.978982
H	 -0.656326	 -2.610823	 0.499917
H	 -1.873518	 -1.471432	 -0.055278
C	 -0.381609	 -0.813417	 -2.226865
H	 0.366496	 -0.106062	 -2.579876
H	 -0.435693	 -1.641239	 -2.920182
H	 -1.346371	 -0.311084	 -2.200645

8 4 3 5 F

1 2 3 5 F

10 7 4 8 F

