%nprocshared=1
%mem=2GB
#HF/6-31G* nosymm scf=tight 

Mol

0 1
H	 -2.273092	 1.173159	 0.000295
O	 -1.438904	 1.618192	 0.000114
C	 -0.409536	 0.736003	 0.000030
C	 -0.213381	 0.009602	 -1.164042
C	 0.418676	 0.556636	 1.105848
H	 -0.875075	 0.178966	 -1.993179
C	 0.816620	 -0.908603	 -1.238260
C	 1.446248	 -0.373161	 1.003081
C	 0.202917	 1.350063	 2.375072
H	 0.963491	 -1.468995	 -2.144286
C	 1.654284	 -1.105507	 -0.152201
H	 2.094878	 -0.523464	 1.848677
H	 -0.778471	 1.166482	 2.807645
H	 0.936720	 1.080607	 3.124007
H	 0.296013	 2.420942	 2.206111
H	 2.457398	 -1.817997	 -0.202852
