%nprocshared=1
%mem=2GB
#HF/6-31G* nosymm scf=tight 

Mol

0 1
H	 -2.095764	 0.435638	 -2.350391
C	 -2.795213	 1.048318	 -1.768139
C	 -2.660244	 0.921717	 -0.272021
O	 -3.583432	 1.744001	 -2.321751
C	 -3.891513	 0.274808	 0.377396
H	 -1.756380	 0.363955	 -0.056058
H	 -2.533921	 1.928603	 0.124058
C	 -5.147312	 1.147453	 0.308424
H	 -4.083141	 -0.672848	 -0.117083
H	 -3.667999	 0.034503	 1.415689
C	 -6.368910	 0.485563	 0.949061
H	 -5.363480	 1.378382	 -0.732629
H	 -4.960299	 2.102508	 0.795698
C	 -7.626768	 1.354192	 0.864050
H	 -6.544505	 -0.472114	 0.465581
H	 -6.153703	 0.266511	 1.994091
C	 -8.857354	 0.768025	 1.565574
H	 -7.865205	 1.541345	 -0.181806
H	 -7.409185	 2.325408	 1.303493
C	 -9.398674	 -0.515085	 0.932944
H	 -9.644780	 1.517611	 1.560052
H	 -8.621960	 0.583942	 2.611817
H	 -9.627699	 -0.365009	 -0.118861
H	 -8.690116	 -1.333559	 1.003805
H	 -10.311925	 -0.832382	 1.427201

6 3 5 8 F

3 5 8 12 F

12 8 11 14 F

8 11 14 18 F

20 17 14 18 F

