%nprocshared=1
%mem=2GB
#HF/6-31G* nosymm scf=tight 
prop=(read,field)

Mol

0 1
H	 -0.216795	 0.021366	 -3.357402
C	 0.374228	 0.036390	 -2.447010
C	 -0.521727	 -0.028640	 -1.217342
H	 0.969632	 0.942319	 -2.434777
H	 1.053394	 -0.811671	 -2.481329
N	 0.263430	 0.031175	 -0.000000
H	 -1.199005	 0.820287	 -1.219355
H	 -1.147871	 -0.924898	 -1.265384
C	 -0.521727	 -0.028640	 1.217342
H	 0.935799	 -0.712712	 -0.000000
C	 0.374228	 0.036390	 2.447010
H	 -1.199005	 0.820287	 1.219355
H	 -1.147871	 -0.924898	 1.265384
H	 0.969632	 0.942319	 2.434777
H	 -0.216795	 0.021366	 3.357402
H	 1.053394	 -0.811671	 2.481329

@grid.dat /N
