%nprocshared=1
%mem=2GB
#HF/6-31G* nosymm scf=tight 

Mol

0 1
H	 -2.764593	 0.811128	 0.647400
O	 -2.057477	 1.434975	 0.570753
C	 -2.557858	 2.663380	 0.107402
C	 -3.361673	 3.420162	 1.159014
H	 -1.691053	 3.245181	 -0.178657
H	 -3.158565	 2.516251	 -0.789417
C	 -2.676541	 3.503277	 2.525233
H	 -3.557938	 4.422597	 0.787570
H	 -4.326482	 2.927508	 1.267649
C	 -2.586344	 2.144314	 3.225163
H	 -3.220842	 4.200757	 3.155808
H	 -1.672285	 3.909194	 2.402586
C	 -2.087810	 0.996018	 2.340165
H	 -1.940890	 2.232898	 4.097166
H	 -3.572516	 1.883916	 3.603789
C	 -3.034785	 0.600176	 1.203932
H	 -1.131973	 1.286835	 1.909333
H	 -1.885996	 0.124857	 2.961605
C	 -4.465221	 1.099239	 1.418936
H	 -3.044660	 -0.484477	 1.106250
H	 -2.666261	 0.987989	 0.257311
C	 -5.411106	 0.710962	 0.283063
H	 -4.847259	 0.703375	 2.357459
H	 -4.456195	 2.181939	 1.526468
H	 -5.467273	 -0.368187	 0.171231
H	 -6.416738	 1.077069	 0.465559
H	 -5.076338	 1.123259	 -0.664726

14 10 7 4 F

14 10 13 16 F

10 7 4 8 F

8 4 3 2 F

20 16 19 22 F

4 3 2 1 F

