%nprocshared=1
%mem=2GB
#HF/6-31G* nosymm scf=tight opt=ModRedundant

Mol

0 1
H	 -3.090000	 -0.668000	 0.005000
O	 -2.292000	 -1.178000	 0.001000
C	 -1.209000	 -0.368000	 0.001000
C	 -1.314000	 1.012000	 0.005000
C	 0.039000	 -0.977000	 -0.007000
H	 -2.282000	 1.485000	 0.008000
C	 -0.155000	 1.775000	 0.002000
H	 0.083000	 -2.051000	 -0.013000
C	 1.194000	 -0.215000	 -0.009000
H	 -0.233000	 2.848000	 0.003000
C	 1.088000	 1.176000	 -0.006000
C	 2.552000	 -0.876000	 0.007000
H	 1.977000	 1.782000	 -0.011000
H	 3.234000	 -0.387000	 -0.681000
H	 2.487000	 -1.922000	 -0.271000
H	 2.995000	 -0.823000	 0.998000
