%nprocshared=1
%mem=2GB
#HF/6-31G* nosymm scf=tight 

Mol

0 1
H	 -2.931016	 1.363469	 0.735176
C	 -2.227479	 1.003386	 1.483185
O	 -0.964049	 0.800251	 0.937459
H	 -2.130962	 1.748820	 2.260459
H	 -2.626779	 0.089222	 1.920556
C	 -0.928928	 -0.147809	 -0.081953
C	 0.463145	 -0.201470	 -0.666296
H	 -1.192291	 -1.131930	 0.307715
H	 -1.638375	 0.102612	 -0.868069
O	 1.392611	 -0.295398	 0.366430
H	 0.538897	 -1.057102	 -1.334249
H	 0.640366	 0.700385	 -1.253616
C	 2.706965	 -0.449871	 -0.062409
H	 2.756559	 -0.644779	 -1.131878
H	 3.305899	 0.433456	 0.155466
H	 3.125548	 -1.294566	 0.467107

3 6 7 11 F

2 3 6 7 F

