%nprocshared=1
%mem=2GB
#HF/6-31G* nosymm scf=tight opt=ModRedundant

Mol

0 1
H	 0.000000	 -1.579000	 -1.175000
N	 0.000000	 -1.454000	 -0.180000
C	 1.211000	 -0.757000	 0.224000
C	 -1.211000	 -0.757000	 0.224000
H	 2.066000	 -1.305000	 -0.157000
H	 1.270000	 -0.802000	 1.310000
C	 1.260000	 0.706000	 -0.228000
H	 -1.270000	 -0.802000	 1.310000
H	 -2.066000	 -1.306000	 -0.157000
C	 -1.260000	 0.706000	 -0.228000
H	 1.335000	 0.743000	 -1.314000
H	 2.151000	 1.190000	 0.166000
C	 -0.000000	 1.453000	 0.221000
H	 -2.151000	 1.189000	 0.166000
H	 -1.335000	 0.743000	 -1.314000
H	 -0.000000	 1.534000	 1.307000
H	 -0.000000	 2.468000	 -0.167000
