%nprocshared=1
%mem=2GB
#HF/6-31G* nosymm scf=tight 
prop=(read,field)

Mol

0 1
H	 2.332609	 0.878551	 -1.051875
C	 2.357710	 -0.000000	 -0.417191
C	 1.175432	 0.000000	 0.532058
H	 3.291263	 -0.000000	 0.136856
H	 2.332609	 -0.878551	 -1.051875
O	 0.000000	 0.000000	 -0.221468
H	 1.206604	 0.877321	 1.177878
H	 1.206604	 -0.877321	 1.177878
C	 -1.175432	 0.000000	 0.532058
C	 -2.357710	 -0.000000	 -0.417191
H	 -1.206604	 0.877321	 1.177878
H	 -1.206604	 -0.877321	 1.177878
H	 -2.332609	 0.878551	 -1.051875
H	 -3.291263	 -0.000000	 0.136856
H	 -2.332609	 -0.878551	 -1.051875

@grid.dat /N
