%nprocshared=1
%mem=2GB
#HF/6-31G* nosymm scf=tight 

Mol

0 1
H	 2.603429	 -1.474734	 1.702050
C	 2.000405	 -1.254920	 0.825534
C	 0.864617	 -0.302946	 1.187267
H	 1.598290	 -2.185616	 0.440993
H	 2.659870	 -0.840151	 0.070811
N	 -0.000257	 -0.000071	 0.054619
H	 0.266224	 -0.772304	 1.957985
H	 1.268178	 0.611764	 1.631261
C	 -1.363055	 0.315058	 0.462241
C	 0.567292	 1.013332	 -0.824903
C	 -2.412078	 -0.285320	 -0.468531
H	 -1.482241	 1.391144	 0.451970
H	 -1.549931	 -0.001174	 1.492681
C	 0.104553	 0.867089	 -2.271183
H	 1.645425	 0.916139	 -0.806520
H	 0.347093	 2.020873	 -0.459992
H	 -2.262839	 0.075384	 -1.480151
H	 -2.369300	 -1.368867	 -0.491760
H	 -3.410332	 -0.003975	 -0.144961
H	 0.375979	 -0.111069	 -2.652195
H	 -0.969764	 0.977340	 -2.372374
H	 0.571458	 1.623261	 -2.896106
