%nprocshared=1
%mem=2GB
#HF/6-31G* nosymm scf=tight 

Mol

0 1
H	 -2.924740	 -0.030935	 1.074231
O	 -2.178892	 -0.538337	 1.359408
C	 -1.320020	 -0.770051	 0.271887
C	 -0.547519	 0.471764	 -0.159232
H	 -0.628313	 -1.534881	 0.600902
H	 -1.875243	 -1.177922	 -0.572002
C	 0.105481	 1.231459	 0.998059
H	 0.213631	 0.173056	 -0.875325
H	 -1.234724	 1.133325	 -0.684069
C	 -0.919016	 1.895752	 1.922148
H	 0.775359	 1.986727	 0.596563
H	 0.719900	 0.545042	 1.580864
C	 -2.087810	 0.996018	 2.340165
H	 -0.412293	 2.264191	 2.812279
H	 -1.322096	 2.772037	 1.418807
C	 -3.034785	 0.600176	 1.203932
H	 -1.679970	 0.089761	 2.783090
H	 -2.655854	 1.487766	 3.128420
C	 -4.465221	 1.099239	 1.418936
H	 -3.044660	 -0.484477	 1.106250
H	 -2.666261	 0.987989	 0.257311
C	 -5.411106	 0.710962	 0.283063
H	 -4.847259	 0.703375	 2.357459
H	 -4.456195	 2.181939	 1.526468
H	 -5.467273	 -0.368187	 0.171231
H	 -6.416738	 1.077069	 0.465559
H	 -5.076338	 1.123259	 -0.664726

14 10 7 4 F

14 10 13 16 F

10 7 4 8 F

8 4 3 2 F

20 16 19 22 F

4 3 2 1 F

