%nprocshared=1
%mem=2GB
#HF/6-31G* nosymm scf=tight 

Mol

0 1
O	 -1.276010	 1.052711	 -0.768302
C	 -1.204840	 0.067374	 -0.106123
C	 -2.388195	 -0.672128	 0.458071
O	 -0.067104	 -0.527208	 0.221609
H	 -2.388023	 -1.694060	 0.097175
H	 -3.300579	 -0.174919	 0.164318
H	 -2.315377	 -0.706351	 1.539059
C	 1.170111	 0.034140	 -0.238951
C	 0.791083	 1.138969	 -1.209146
C	 2.021388	 -1.052594	 -0.876904
H	 1.685379	 0.447383	 0.615587
H	 0.172855	 1.882925	 -0.719687
H	 1.683411	 1.628424	 -1.585334
H	 0.239239	 0.736602	 -2.051893
H	 2.949483	 -0.629757	 -1.248205
H	 2.265713	 -1.821955	 -0.155542
H	 1.494810	 -1.506283	 -1.710505

8 4 2 1 F

