%nprocshared=1
%mem=2GB
#HF/6-31G* nosymm scf=tight 

Mol

0 1
O	 1.165813	 0.495763	 0.965778
C	 0.576249	 0.131685	 -0.000108
C	 -0.766779	 -0.556801	 -0.000461
O	 1.036599	 0.288756	 -1.234640
C	 -1.945214	 0.412366	 0.000161
H	 -0.796911	 -1.211249	 -0.867467
H	 -0.796854	 -1.212390	 0.865687
C	 -3.287791	 -0.317055	 0.000105
H	 -1.876087	 1.060580	 -0.866812
H	 -1.875822	 1.059691	 0.867761
H	 -3.394745	 -0.949193	 -0.877058
H	 -4.111778	 0.388953	 0.000015
H	 -3.394954	 -0.949187	 0.877259
C	 2.294108	 0.924371	 -1.375611
H	 2.261772	 1.924975	 -0.969056
H	 2.490598	 0.957668	 -2.435870
H	 3.064075	 0.359991	 -0.869512

9 5 3 6 F

14 4 2 1 F

