%nprocshared=1
%mem=2GB
#HF/6-31G* nosymm scf=tight 

Mol

0 1
O	 -1.276010	 1.052711	 -0.768302
C	 -1.204840	 0.067374	 -0.106123
C	 -2.388195	 -0.672128	 0.458071
O	 -0.067104	 -0.527208	 0.221609
H	 -2.388023	 -1.694060	 0.097175
H	 -3.300579	 -0.174919	 0.164318
H	 -2.315377	 -0.706351	 1.539059
C	 1.170111	 0.034140	 -0.238951
C	 2.232260	 -1.015414	 0.036483
C	 1.434312	 1.350571	 0.475088
H	 1.081142	 0.206262	 -1.301479
H	 1.998177	 -1.941020	 -0.477042
H	 3.200201	 -0.667170	 -0.308695
H	 2.300844	 -1.221881	 1.099178
H	 2.380674	 1.769222	 0.147755
H	 0.654106	 2.068793	 0.257347
H	 1.481510	 1.196872	 1.548473

8 4 2 1 F

