%nprocshared=1
%mem=2GB
#HF/6-31G* nosymm scf=tight 

Mol

0 1
H	 -1.334762	 1.249928	 2.445927
C	 -2.291919	 1.624198	 2.062005
C	 -3.327473	 0.563337	 1.788489
O	 -2.452126	 2.788922	 1.890245
C	 -4.015009	 0.748661	 0.428634
H	 -2.851431	 -0.407318	 1.865443
H	 -4.073372	 0.633046	 2.579331
C	 -4.902224	 1.994114	 0.357958
H	 -3.248974	 0.807418	 -0.338843
H	 -4.606019	 -0.136628	 0.199007
C	 -6.253274	 1.803461	 1.050150
H	 -5.062659	 2.258041	 -0.685331
H	 -4.386047	 2.840886	 0.806374
C	 -7.144331	 3.045428	 0.963640
H	 -6.759475	 0.950440	 0.605350
H	 -6.089580	 1.551128	 2.097010
C	 -8.476090	 2.930578	 1.714174
H	 -7.340708	 3.275648	 -0.082366
H	 -6.595566	 3.895780	 1.362978
C	 -9.441535	 1.892099	 1.140506
H	 -8.962502	 3.902772	 1.700334
H	 -8.281521	 2.704290	 2.760528
H	 -9.641833	 2.084110	 0.089658
H	 -9.050397	 0.883621	 1.223924
H	 -10.390864	 1.916855	 1.666962

6 3 5 8 F

6 3 2 4 F

12 8 11 14 F

8 11 14 18 F

20 17 14 18 F

