%nprocshared=1
%mem=2GB
#HF/6-31G* nosymm scf=tight 

Mol

0 1
O	 3.225979	 0.970355	 -0.599647
C	 2.701189	 0.057885	 -0.047330
C	 1.245376	 -0.013843	 0.345420
O	 3.347903	 -1.046386	 0.304773
C	 0.455112	 1.231400	 -0.050772
H	 0.838542	 -0.913825	 -0.103701
H	 1.208210	 -0.175333	 1.419774
C	 -0.998893	 1.219485	 0.433193
H	 0.482531	 1.345121	 -1.130325
H	 0.957290	 2.103070	 0.354729
C	 -1.883438	 0.145884	 -0.207175
H	 -1.431207	 2.195402	 0.224832
H	 -1.019646	 1.105716	 1.516076
C	 -3.312373	 0.148327	 0.339762
H	 -1.910694	 0.300857	 -1.284700
H	 -1.449512	 -0.839164	 -0.051097
C	 -3.403551	 -0.301105	 1.799155
H	 -3.933894	 -0.500769	 -0.274746
H	 -3.732151	 1.148668	 0.245930
C	 -2.384165	 0.392034	 2.702543
H	 -4.406799	 -0.107987	 2.173109
H	 -3.260027	 -1.378217	 1.854025
H	 -2.473600	 0.052774	 3.729923
H	 -2.523858	 1.469368	 2.696751
H	 -1.368323	 0.189795	 2.374762
C	 4.728119	 -1.109107	 -0.004993
H	 4.882018	 -1.033965	 -1.071845
H	 5.068212	 -2.067527	 0.355250
H	 5.265056	 -0.311663	 0.488280

21 17 14 11 F

17 14 11 15 F

6 3 5 9 F

11 8 5 9 F

2 4 26 27 F

1 2 4 26 F

6 3 2 1 F

