%nprocshared=1
%mem=2GB
#HF/6-31G* nosymm scf=tight 

Mol

0 1
H	 -2.631418	 -0.656676	 -3.257327
N	 -2.563669	 -0.271096	 -2.335219
C	 -2.019489	 -1.250134	 -1.405231
H	 -3.491505	 -0.006489	 -2.063311
C	 -1.826650	 -0.630326	 -0.025229
H	 -1.057117	 -1.572049	 -1.791327
H	 -2.637163	 -2.147357	 -1.316517
C	 -0.679275	 0.379305	 0.025956
H	 -2.757816	 -0.155833	 0.270781
H	 -1.641134	 -1.423626	 0.698369
C	 -0.791153	 1.473151	 -1.037697
H	 0.267580	 -0.144008	 -0.098373
H	 -0.644194	 0.841546	 1.011324
C	 -2.115055	 2.234023	 -0.975523
H	 0.033362	 2.173024	 -0.921214
H	 -0.676491	 1.028719	 -2.024099
H	 -2.243718	 2.718807	 -0.011807
H	 -2.163946	 3.002377	 -1.740928
H	 -2.958889	 1.565841	 -1.123406

6 3 5 9 F

12 8 5 9 F

1 2 3 6 F

