%nprocshared=1
%mem=2GB
#HF/6-31G* nosymm scf=tight 

Mol

0 1
H	 -2.321325	 -0.430721	 -2.278649
C	 -1.838952	 -0.299331	 -1.328159
C	 -2.575701	 -0.020991	 -0.189443
C	 -0.468363	 -0.407193	 -1.229171
H	 -3.645755	 0.066952	 -0.245946
C	 -1.941509	 0.145664	 1.027419
H	 0.129577	 -0.621583	 -2.090148
C	 0.154804	 -0.237046	 -0.000077
H	 -2.530922	 0.360931	 1.899399
C	 -0.559021	 0.044964	 1.169518
N	 1.611208	 -0.370857	 -0.000034
C	 0.028695	 0.245814	 2.549077
O	 2.274126	 0.622059	 -0.008063
O	 2.068510	 -1.474748	 0.007823
H	 0.721750	 1.075518	 2.568932
H	 -0.772269	 0.445461	 3.249772
H	 0.570389	 -0.628881	 2.881639
