%nprocshared=1
%mem=2GB
#HF/6-31G* nosymm scf=tight 

Mol

0 1
H	 -3.161837	 0.500524	 -0.000234
C	 -2.367097	 -0.232926	 -0.000000
O	 -1.158440	 0.455814	 -0.000122
H	 -2.468853	 -0.861886	 -0.882833
H	 -2.468942	 -0.861421	 0.883154
C	 -1.058687	 1.440634	 0.983775
C	 0.300233	 2.109559	 0.871797
H	 -1.182068	 0.997128	 1.972703
H	 -1.854304	 2.176601	 0.860266
C	 1.429313	 1.104965	 0.646293
H	 0.265805	 2.824373	 0.055392
H	 0.479768	 2.678411	 1.778921
H	 1.281184	 0.541309	 -0.270643
H	 2.386852	 1.609190	 0.570645
H	 1.496256	 0.393752	 1.464888

6 3 2 4 F

8 6 3 2 F

