%nprocshared=1
%mem=2GB
#HF/6-31G* nosymm scf=tight 

Mol

0 1
H	 -1.241720	 -5.694026	 -1.072717
C	 -0.694537	 -4.854458	 -0.682204
C	 -0.564371	 -4.691439	 0.688792
C	 -0.121860	 -3.939084	 -1.551148
H	 -1.008997	 -5.402081	 1.361594
C	 0.139344	 -3.611672	 1.190162
H	 -0.223812	 -4.067092	 -2.613610
C	 0.583016	 -2.857460	 -1.051534
H	 0.250248	 -3.469616	 2.248081
C	 0.715275	 -2.691262	 0.322020
H	 1.027816	 -2.146662	 -1.720293
C	 1.463013	 -1.545621	 0.912827
O	 1.970282	 -0.730723	 0.000018
O	 1.596921	 -1.371015	 2.083485
C	 3.377318	 -0.566646	 -0.000065
H	 3.695437	 -0.028981	 -0.881264
H	 3.789299	 -1.563704	 0.000236
H	 3.695516	 -0.028316	 0.880770

12 13 15 16 F

13 12 10 6 F

