%nprocshared=1
%mem=2GB
#HF/6-31G* nosymm scf=tight 

Mol

0 1
H	 2.400873	 2.982506	 -0.778873
O	 1.455676	 2.941182	 -0.817631
C	 1.006449	 1.734590	 -0.409314
C	 1.863229	 0.722166	 0.003274
C	 -0.361598	 1.525133	 -0.411609
H	 2.927554	 0.887233	 0.004300
C	 1.351980	 -0.497873	 0.412907
H	 -1.024499	 2.306304	 -0.730060
C	 -0.865228	 0.300799	 0.000000
H	 2.024894	 -1.273760	 0.730026
C	 -0.013884	 -0.715926	 0.413827
C	 -2.333960	 0.069074	 0.000000
H	 -0.413159	 -1.662816	 0.731608
O	 -2.847347	 -1.003763	 0.000000
H	 -2.943845	 0.977528	 0.000000

4 3 2 1 F

