%nprocshared=1
%mem=2GB
#HF/6-31G* nosymm scf=tight 

Mol

0 1
O	 0.718246	 -3.616666	 -4.415533
C	 1.799807	 -3.479838	 -3.929798
C	 1.953947	 -3.055153	 -2.479905
C	 3.063168	 -3.751182	 -4.715716
C	 1.533724	 -1.588605	 -2.290725
H	 2.998959	 -3.169414	 -2.213078
H	 1.366523	 -3.696645	 -1.829177
C	 0.149006	 -1.302371	 -2.876593
H	 1.553055	 -1.365485	 -1.229957
H	 2.264736	 -0.934155	 -2.763021
C	 0.075323	 -1.399736	 -4.404711
H	 -0.174023	 -0.311108	 -2.563903
H	 -0.564349	 -2.004367	 -2.449772
C	 -1.053427	 -2.288511	 -4.930067
H	 1.023541	 -1.787350	 -4.768483
H	 -0.024340	 -0.400645	 -4.824201
H	 -0.984148	 -3.291584	 -4.518035
H	 -1.004790	 -2.372263	 -6.011279
H	 -2.032469	 -1.894716	 -4.678683
H	 3.613173	 -2.824105	 -4.854589
H	 2.815830	 -4.169878	 -5.681274
H	 3.714156	 -4.431460	 -4.174199

6 3 2 1 F

6 3 5 8 F

3 5 8 12 F

