%nprocshared=1
%mem=2GB
#HF/6-31G* nosymm scf=tight 

Mol

0 1
H	 -0.988021	 1.884534	 0.241332
N	 -1.045686	 0.893008	 0.369885
C	 0.268280	 0.283211	 0.266218
H	 -1.639330	 0.532345	 -0.351653
C	 0.755611	 0.345514	 -1.166179
H	 1.019779	 0.748433	 0.905607
H	 0.191127	 -0.759215	 0.559775
O	 -0.088814	 -0.446451	 -1.951562
H	 0.743026	 1.374867	 -1.523828
H	 1.777531	 -0.023120	 -1.221148
C	 0.295968	 -0.548357	 -3.285402
H	 1.077210	 -1.293847	 -3.345427
H	 -0.534823	 -0.858547	 -3.916710
H	 0.680852	 0.397273	 -3.661511

8 5 3 6 F

6 3 2 4 F

11 8 5 3 F

