%nprocshared=1
%mem=2GB
#HF/6-31G* nosymm scf=tight 

Mol

0 1
O	 -1.562756	 -1.546840	 1.031411
C	 -0.451170	 -1.129930	 1.097049
C	 0.801727	 -1.959116	 0.945507
O	 -0.161181	 0.144586	 1.318680
C	 1.124911	 -2.785238	 2.184071
H	 1.613075	 -1.280220	 0.700432
H	 0.669725	 -2.590969	 0.072237
H	 1.272053	 -2.149836	 3.048928
H	 2.030738	 -3.360307	 2.024106
H	 0.320287	 -3.472711	 2.414906
C	 -1.249474	 1.047857	 1.483367
C	 -1.941046	 1.174473	 0.142468
H	 -0.868631	 1.999526	 1.828138
H	 -1.916295	 0.661921	 2.242310
H	 -1.258508	 1.556996	 -0.607850
H	 -2.780767	 1.857149	 0.222896
H	 -2.312004	 0.212119	 -0.191481

2 4 11 13 F

11 4 2 3 F

