%nprocshared=1
%mem=2GB
#HF/6-31G* nosymm scf=tight 

Mol

0 1
H	 -3.846280	 -2.044867	 -0.736678
C	 -2.776048	 -1.941011	 -0.761186
C	 -2.033375	 -2.654594	 -1.689833
C	 -2.143861	 -1.094287	 0.135659
H	 -2.524909	 -3.310923	 -2.384810
C	 -0.657310	 -2.520533	 -1.720733
H	 -2.721215	 -0.541941	 0.854814
C	 -0.766511	 -0.958514	 0.106573
H	 -0.066624	 -3.064865	 -2.432396
C	 -0.019340	 -1.672313	 -0.822936
H	 -0.273140	 -0.304414	 0.798715
C	 1.464981	 -1.563411	 -0.897703
O	 1.970282	 -0.730723	 0.000018
O	 2.137461	 -2.159018	 -1.679931
C	 3.377318	 -0.566646	 -0.000065
H	 3.695437	 -0.028981	 -0.881264
H	 3.789299	 -1.563704	 0.000236
H	 3.695516	 -0.028316	 0.880770

10 12 13 15 F

13 12 10 6 F

