%nprocshared=1
%mem=2GB
#HF/6-31G* nosymm scf=tight 

Mol

0 1
H	 -3.489899	 1.228218	 -1.029938
O	 -3.452007	 0.283848	 -0.965577
C	 -3.181085	 -0.079926	 0.364119
C	 -1.765924	 0.277073	 0.805136
H	 -3.327791	 -1.152017	 0.410903
H	 -3.905698	 0.375695	 1.036898
C	 -1.020758	 -0.884158	 1.464520
H	 -1.203588	 0.630899	 -0.059472
H	 -1.823985	 1.118484	 1.493524
C	 -1.613452	 -1.287552	 2.816247
H	 0.023330	 -0.613432	 1.588204
H	 -1.036136	 -1.741500	 0.793610
C	 -3.135431	 -1.448041	 2.772546
H	 -1.151144	 -2.216276	 3.142073
H	 -1.353805	 -0.538698	 3.563513
C	 -3.911109	 -0.147525	 2.533510
H	 -3.475883	 -1.902769	 3.701529
H	 -3.388486	 -2.150809	 1.981410
C	 -5.394938	 -0.341382	 2.215584
H	 -3.444900	 0.384472	 1.707726
H	 -3.809616	 0.496974	 3.404442
H	 -5.527677	 -0.992588	 1.355672
H	 -5.867146	 0.608763	 1.985189
H	 -5.935369	 -0.778876	 3.048469

20 16 13 17 F

17 13 10 7 F

13 10 7 11 F

11 7 4 3 F

1 2 3 5 F

