%nprocshared=1
%mem=2GB
#HF/6-31G* nosymm scf=tight 

Mol

0 1
O	 1.825465	 1.324323	 -0.951462
C	 0.788116	 1.716284	 -1.379704
C	 -0.516134	 0.957269	 -1.353318
O	 0.640172	 2.906476	 -1.947763
C	 -0.823008	 0.326187	 0.001381
H	 -1.299814	 1.647936	 -1.652547
H	 -0.470175	 0.205508	 -2.136556
C	 -1.960166	 -0.693470	 -0.077566
H	 -1.076750	 1.107686	 0.710651
H	 0.073679	 -0.150017	 0.385425
C	 -3.335289	 -0.043777	 -0.241257
H	 -1.783306	 -1.371977	 -0.910839
H	 -1.959765	 -1.309167	 0.820653
C	 -3.405277	 0.912947	 -1.430809
H	 -3.589631	 0.493206	 0.669841
H	 -4.087923	 -0.820437	 -0.357360
H	 -2.687089	 1.721417	 -1.326909
H	 -4.391818	 1.356965	 -1.520454
H	 -3.188869	 0.397372	 -2.362292
C	 1.792514	 3.724689	 -2.034891
H	 2.180449	 3.940881	 -1.049855
H	 1.472688	 4.634305	 -2.518819
H	 2.560106	 3.239076	 -2.620117

15 11 8 12 F

9 5 8 12 F

1 2 3 6 F

1 2 4 20 F

