%nprocshared=1
%mem=2GB
#HF/6-31G* nosymm scf=tight 

Mol

0 1
H	 2.591676	 2.013956	 0.335017
O	 3.341076	 1.666752	 -0.126416
C	 3.569581	 0.339145	 0.272707
C	 2.539767	 -0.640285	 -0.279495
H	 4.553106	 0.084646	 -0.100901
H	 3.608576	 0.269204	 1.359154
C	 1.115811	 -0.397273	 0.226630
H	 2.556196	 -0.582511	 -1.364741
H	 2.852081	 -1.648031	 -0.010655
C	 0.115918	 -1.429151	 -0.302766
H	 0.797950	 0.599468	 -0.066350
H	 1.109961	 -0.420744	 1.316472
C	 -0.613746	 -1.018751	 -1.587095
H	 0.630209	 -2.374265	 -0.467423
H	 -0.626711	 -1.619203	 0.469298
C	 0.278511	 -0.901782	 -2.825914
H	 -1.391165	 -1.752987	 -1.787927
H	 -1.127545	 -0.072928	 -1.421967
C	 -0.509328	 -0.594075	 -4.101086
H	 0.829331	 -1.831588	 -2.960702
H	 1.024356	 -0.124530	 -2.677939
C	 0.379639	 -0.470447	 -5.338065
H	 -1.248380	 -1.375395	 -4.264882
H	 -1.068002	 0.329606	 -3.964772
H	 0.927722	 -1.390524	 -5.520511
H	 -0.207786	 -0.254281	 -6.225104
H	 1.106760	 0.328216	 -5.220606

14 10 13 16 F

10 7 4 8 F

8 4 3 2 F

10 13 16 20 F

20 16 19 22 F

4 3 2 1 F

