%nprocshared=1
%mem=2GB
#HF/6-31G* nosymm scf=tight 

Mol

0 1
H	 -2.273092	 1.173159	 0.000295
O	 -1.438904	 1.618192	 0.000114
C	 -0.409536	 0.736003	 0.000030
C	 0.580867	 0.936157	 0.948839
C	 -0.335916	 -0.323656	 -0.901438
H	 0.484972	 1.765570	 1.624759
C	 1.661372	 0.076869	 1.009203
C	 0.761622	 -1.171832	 -0.817798
C	 -1.417471	 -0.540251	 -1.936007
H	 2.426415	 0.237624	 1.747688
C	 1.757888	 -0.984644	 0.123849
H	 0.833252	 -1.995253	 -1.507140
H	 -1.513137	 0.309763	 -2.608515
H	 -1.194910	 -1.406111	 -2.546521
H	 -2.389546	 -0.712309	 -1.478336
H	 2.595464	 -1.656932	 0.165030
