%nprocshared=1
%mem=2GB
#HF/6-31G* nosymm scf=tight 

Mol

0 1
H	 -2.682522	 2.117374	 1.363983
C	 -2.092245	 1.453300	 1.992250
O	 -0.795460	 1.314074	 1.508202
H	 -2.026108	 1.877422	 2.984665
H	 -2.602287	 0.492831	 2.053775
C	 -0.719715	 0.768384	 0.229244
C	 0.719720	 0.768376	 -0.229267
H	 -1.094941	 -0.255770	 0.232312
H	 -1.319749	 1.343415	 -0.473112
O	 1.392611	 -0.295398	 0.366430
H	 0.750534	 0.687200	 -1.313918
H	 1.185043	 1.714359	 0.050526
C	 2.706965	 -0.449871	 -0.062409
H	 2.756559	 -0.644779	 -1.131878
H	 3.305899	 0.433456	 0.155466
H	 3.125548	 -1.294566	 0.467107

7 10 13 14 F

2 3 6 7 F

