%nprocshared=1
%mem=2GB
#HF/6-31G* nosymm scf=tight 

Mol

0 1
O	 -3.853486	 4.767425	 2.367791
C	 -3.589812	 4.457530	 1.246542
C	 -2.652680	 3.307590	 0.923494
C	 -4.178810	 5.198743	 0.063816
C	 -2.933125	 2.035105	 1.717450
H	 -2.717326	 3.115698	 -0.146734
H	 -1.633034	 3.650735	 1.093720
C	 -3.149660	 2.309001	 3.206696
H	 -2.106600	 1.344042	 1.585474
H	 -3.806111	 1.541696	 1.302009
C	 -1.854133	 2.645517	 3.947033
H	 -3.854648	 3.130395	 3.326493
H	 -3.613430	 1.440606	 3.672394
C	 -1.077825	 3.801573	 3.313872
H	 -1.219110	 1.761958	 3.980043
H	 -2.085184	 2.892218	 4.981804
C	 -0.372266	 3.407603	 2.016699
H	 -1.758295	 4.627547	 3.117527
H	 -0.343354	 4.174354	 4.024818
H	 -1.084313	 3.062045	 1.272569
H	 0.168543	 4.247629	 1.591748
H	 0.341497	 2.606439	 2.186475
H	 -4.744894	 4.518640	 -0.565967
H	 -4.826996	 5.989572	 0.414927
H	 -3.388670	 5.622899	 -0.548887

9 5 8 12 F

15 11 8 12 F

15 11 14 18 F

1 2 3 6 F

