%nprocshared=1
%mem=2GB
#HF/6-31G* nosymm scf=tight 

Mol

0 1
H	 -2.577606	 0.247184	 1.509904
O	 -1.840915	 -0.185680	 1.103718
C	 -2.061112	 -1.573124	 1.079922
C	 -1.834393	 -2.194277	 -0.293939
H	 -1.362323	 -1.994256	 1.791270
H	 -3.064107	 -1.805927	 1.435709
C	 -0.529280	 -1.760120	 -0.965547
H	 -1.849024	 -3.276097	 -0.189934
H	 -2.675629	 -1.925342	 -0.930620
C	 -0.534667	 -0.282883	 -1.368735
H	 -0.358061	 -2.375465	 -1.844410
H	 0.304793	 -1.942281	 -0.287696
C	 -1.034384	 0.678739	 -0.284342
H	 0.468788	 0.008656	 -1.673577
H	 -1.164037	 -0.166577	 -2.248546
C	 -2.517662	 0.537580	 0.068418
H	 -0.446648	 0.513375	 0.616234
H	 -0.832730	 1.703636	 -0.592170
C	 -3.444826	 0.979908	 -1.065667
H	 -2.732873	 1.127897	 0.957980
H	 -2.744748	 -0.494302	 0.325233
C	 -3.060044	 0.384183	 -2.419446
H	 -4.467576	 0.697702	 -0.825188
H	 -3.436793	 2.065785	 -1.134161
H	 -3.090296	 -0.701452	 -2.392900
H	 -3.736537	 0.714599	 -3.201634
H	 -2.054373	 0.678667	 -2.706271

14 10 7 4 F

14 10 13 16 F

10 7 4 8 F

8 4 3 2 F

10 13 16 20 F

20 16 19 22 F

