%nprocshared=1
%mem=2GB
#HF/6-31G* nosymm scf=tight 

Mol

0 1
H	 -3.161837	 0.500524	 -0.000234
C	 -2.367097	 -0.232926	 -0.000000
O	 -1.158440	 0.455814	 -0.000122
H	 -2.468853	 -0.861886	 -0.882833
H	 -2.468942	 -0.861421	 0.883154
C	 -1.058687	 1.440634	 0.983775
C	 0.300233	 2.109559	 0.871797
H	 -1.182068	 0.997128	 1.972703
H	 -1.854304	 2.176601	 0.860266
C	 1.389995	 1.144719	 0.406626
H	 0.217719	 2.943104	 0.181105
H	 0.558381	 2.528833	 1.839406
H	 1.162515	 0.731893	 -0.572277
H	 2.348398	 1.648034	 0.336021
H	 1.505158	 0.314168	 1.097513

6 3 2 4 F

8 6 3 2 F

