%nprocshared=1
%mem=2GB
#HF/6-31G* nosymm scf=tight 

Mol

0 1
H	 -2.698709	 -0.000305	 0.034435
C	 -1.693833	 0.000034	 0.434417
O	 -0.828952	 -0.000968	 -0.659236
H	 -1.574200	 0.882896	 1.055746
H	 -1.574147	 -0.881698	 1.057355
C	 -1.366208	 -0.216900	 -1.943461
C	 -1.758591	 -1.674566	 -2.176186
C	 -2.501943	 0.749751	 -2.273084
H	 -0.534968	 0.011746	 -2.599808
H	 -0.947846	 -2.333526	 -1.884615
H	 -1.969229	 -1.838697	 -3.228293
H	 -2.646363	 -1.955315	 -1.618328
H	 -2.206001	 1.768658	 -2.047906
H	 -2.744186	 0.691180	 -3.329660
H	 -3.407139	 0.524857	 -1.718213

9 6 3 2 F

