%nprocshared=1
%mem=2GB
#HF/6-31G* nosymm scf=tight 

Mol

0 1
H	 -1.804138	 -1.496277	 -1.238849
N	 -1.101932	 -0.783348	 -1.284868
C	 -0.563778	 -0.502042	 0.037919
H	 -1.542138	 0.032625	 -1.665871
C	 0.575259	 0.508231	 -0.048326
H	 -0.184502	 -1.434340	 0.445555
H	 -1.317577	 -0.137215	 0.740367
C	 1.954651	 -0.143624	 0.035137
H	 0.475158	 1.060484	 -0.977307
H	 0.469181	 1.234488	 0.755973
H	 2.103292	 -0.853109	 -0.774172
H	 2.742821	 0.599562	 -0.030094
H	 2.083613	 -0.679371	 0.971560

1 2 3 6 F

