%nprocshared=1
%mem=2GB
#HF/6-31G* nosymm scf=tight 

Mol

0 1
O	 -3.853486	 4.767425	 2.367791
C	 -3.589812	 4.457530	 1.246542
C	 -2.652680	 3.307590	 0.923494
C	 -4.178810	 5.198743	 0.063816
C	 -2.933125	 2.035105	 1.717450
H	 -2.717326	 3.115698	 -0.146734
H	 -1.633034	 3.650735	 1.093720
C	 -3.174169	 0.822892	 0.816228
H	 -3.795309	 2.197326	 2.356552
H	 -2.098439	 1.840015	 2.383323
C	 -4.538921	 0.853190	 0.126108
H	 -2.391577	 0.770282	 0.060696
H	 -3.090098	 -0.089841	 1.404377
C	 -4.792265	 2.141920	 -0.658113
H	 -5.321729	 0.726872	 0.871946
H	 -4.620376	 0.001414	 -0.546825
C	 -5.089982	 3.340296	 0.242410
H	 -3.925405	 2.362990	 -1.277391
H	 -5.624512	 1.989558	 -1.342226
H	 -4.261389	 3.539796	 0.916045
H	 -5.264458	 4.238411	 -0.342097
H	 -5.973201	 3.164212	 0.849917
H	 -4.744894	 4.518640	 -0.565967
H	 -4.826996	 5.989572	 0.414927
H	 -3.388670	 5.622899	 -0.548887

9 5 8 12 F

15 11 8 12 F

15 11 14 18 F

1 2 3 6 F

