%nprocshared=1
%mem=2GB
#HF/6-31G* nosymm scf=tight 

Mol

0 1
H	 -3.571158	 0.540474	 0.139285
O	 -3.106200	 -0.271124	 -0.011510
C	 -1.775819	 -0.076055	 -0.001477
C	 -1.080487	 0.232797	 1.163909
C	 -1.104076	 -0.194306	 -1.211784
H	 -1.608742	 0.322602	 2.097821
C	 0.284598	 0.422255	 1.114210
H	 -1.662534	 -0.433275	 -2.096820
C	 0.261317	 -0.001927	 -1.245359
H	 0.833729	 0.661000	 2.005588
C	 0.971812	 0.307363	 -0.089867
H	 0.782356	 -0.093449	 -2.183018
C	 2.433014	 0.510472	 -0.141325
O	 3.119696	 0.267441	 -1.084808
H	 2.875574	 0.915098	 0.774964

7 11 13 14 F

