%nprocshared=1
%mem=2GB
#HF/6-31G* nosymm scf=tight 

Mol

0 1
O	 -0.682937	 1.318834	 -0.186099
C	 -0.860635	 0.152188	 -0.042321
C	 -2.173363	 -0.477127	 0.338347
O	 0.083258	 -0.765189	 -0.202595
H	 -2.477673	 -1.180929	 -0.427595
H	 -2.923125	 0.290956	 0.455536
H	 -2.058825	 -1.029004	 1.264191
C	 1.391937	 -0.334737	 -0.569838
C	 1.532308	 -0.202544	 -2.074986
H	 2.118328	 -1.024146	 -0.167083
H	 1.508168	 0.623560	 -0.084393
H	 2.511452	 0.198252	 -2.318645
H	 1.429493	 -1.166025	 -2.558205
H	 0.780200	 0.471493	 -2.470489

8 4 2 1 F

