%nprocshared=1
%mem=2GB
#HF/6-31G* nosymm scf=tight 

Mol

0 1
H	 -3.571158	 0.540474	 0.139285
O	 -3.106200	 -0.271124	 -0.011510
C	 -1.775819	 -0.076055	 -0.001477
C	 -1.158740	 0.779748	 0.906167
C	 -1.022097	 -0.767296	 -0.941771
H	 -1.750258	 1.311726	 1.631712
C	 0.210391	 0.940922	 0.869796
H	 -1.521142	 -1.421531	 -1.631120
C	 0.346256	 -0.595600	 -0.965599
H	 0.699677	 1.597956	 1.564062
C	 0.979172	 0.255922	 -0.065626
H	 0.930807	 -1.131036	 -1.694071
C	 2.444588	 0.429575	 -0.103204
O	 3.191252	 -0.237813	 -0.749612
H	 2.829630	 1.241410	 0.522763

7 11 13 14 F

