%nprocshared=1
%mem=2GB
#HF/6-31G* nosymm scf=tight 

Mol

0 1
H	 -3.807650	 -0.149403	 -1.468522
O	 -4.264587	 -0.813323	 -0.973052
C	 -3.654572	 -2.062048	 -1.179504
C	 -2.308545	 -2.197140	 -0.476164
H	 -4.346924	 -2.796160	 -0.787838
H	 -3.542375	 -2.259846	 -2.244899
C	 -1.237847	 -1.231865	 -0.990672
H	 -2.458868	 -2.041385	 0.588970
H	 -1.961988	 -3.221655	 -0.601199
C	 0.115918	 -1.429151	 -0.302766
H	 -1.575910	 -0.210395	 -0.840080
H	 -1.115297	 -1.366525	 -2.065470
C	 0.579824	 -2.886769	 -0.200376
H	 0.871863	 -0.846888	 -0.826563
H	 0.057287	 -1.015218	 0.701685
C	 0.727785	 -3.417141	 1.228361
H	 -0.136855	 -3.511425	 -0.729518
H	 1.526011	 -3.000648	 -0.727253
C	 1.089510	 -4.903113	 1.278129
H	 -0.203924	 -3.256926	 1.769064
H	 1.489685	 -2.852392	 1.760217
C	 1.244105	 -5.433542	 2.703053
H	 0.324002	 -5.477389	 0.760738
H	 2.015148	 -5.066637	 0.730097
H	 0.323796	 -5.314109	 3.267847
H	 1.498359	 -6.488998	 2.704892
H	 2.028698	 -4.903778	 3.236090

14 10 7 4 F

10 7 4 8 F

8 4 3 2 F

10 13 16 20 F

20 16 19 22 F

4 3 2 1 F

