%nprocshared=1
%mem=2GB
#HF/6-31G* nosymm scf=tight 

Mol

0 1
H	 -2.682155	 0.590060	 -0.148488
N	 -1.889205	 0.079653	 0.188690
C	 -0.662645	 0.821780	 -0.043480
H	 -1.855942	 -0.786323	 -0.313394
C	 -0.353798	 0.859431	 -1.525482
H	 -0.693104	 1.847169	 0.327536
H	 0.151181	 0.315101	 0.466173
O	 -0.088814	 -0.446451	 -1.951562
H	 -1.200514	 1.268385	 -2.076360
H	 0.509648	 1.496750	 -1.703023
C	 0.295968	 -0.548357	 -3.285402
H	 1.077210	 -1.293847	 -3.345427
H	 -0.534823	 -0.858547	 -3.916710
H	 0.680852	 0.397273	 -3.661511

8 5 3 6 F

6 3 2 4 F

11 8 5 3 F

