%nprocshared=1
%mem=2GB
#HF/6-31G* nosymm scf=tight 

Mol

0 1
O	 -2.401811	 -1.061819	 0.800546
C	 -1.900747	 -0.002343	 0.603779
C	 -2.609235	 1.320791	 0.711982
O	 -0.632575	 0.154573	 0.251549
H	 -2.567124	 1.837688	 -0.239854
H	 -3.637224	 1.159113	 0.999969
H	 -2.111369	 1.943707	 1.446054
C	 0.160891	 -1.019931	 0.106212
C	 1.589627	 -0.672828	 0.480843
H	 0.089836	 -1.367806	 -0.916050
H	 -0.238459	 -1.792301	 0.749618
C	 2.246377	 0.346236	 -0.452210
H	 2.163194	 -1.597435	 0.473358
H	 1.604769	 -0.303424	 1.502885
C	 1.358904	 1.563499	 -0.708460
H	 3.190486	 0.671580	 -0.019882
H	 2.486927	 -0.133459	 -1.395284
H	 1.845995	 2.270083	 -1.372924
H	 1.128012	 2.084502	 0.216485
H	 0.418136	 1.272933	 -1.167378

16 12 9 8 F

12 9 8 10 F

1 2 4 8 F

