%nprocshared=1
%mem=2GB
#HF/6-31G* nosymm scf=tight 

Mol

0 1
H	 -0.928221	 1.762403	 -0.853665
C	 -0.255323	 0.926834	 -1.051958
N	 0.538815	 0.649616	 0.000000
O	 -0.255262	 0.349643	 -2.098887
C	 1.521968	 -0.411503	 0.000000
H	 0.437862	 1.208398	 0.815999
H	 2.150599	 -0.357004	 -0.881901
H	 0.999455	 -1.354525	 0.000000
H	 2.150599	 -0.357004	 0.881901

1 2 3 6 F

