%nprocshared=1
%mem=2GB
#HF/6-31G* nosymm scf=tight 

Mol

0 1
H	 -2.825233	 -1.316092	 2.024603
C	 -2.501636	 -0.640690	 1.235136
O	 -1.153941	 -0.814704	 0.937181
H	 -3.064552	 -0.856292	 0.337482
H	 -2.714497	 0.381140	 1.546554
C	 -0.296709	 -0.563617	 2.005524
C	 1.120400	 -0.889705	 1.596044
H	 -0.353111	 0.485947	 2.296950
H	 -0.568067	 -1.166762	 2.869576
O	 1.392611	 -0.295398	 0.366430
H	 1.806290	 -0.529750	 2.360240
H	 1.233147	 -1.972327	 1.525948
C	 2.706965	 -0.449871	 -0.062409
H	 2.756559	 -0.644779	 -1.131878
H	 3.305899	 0.433456	 0.155466
H	 3.125548	 -1.294566	 0.467107

3 6 7 11 F

2 3 6 7 F

