%nprocshared=1
%mem=2GB
#HF/6-31G* nosymm scf=tight 

Mol

0 1
O	 2.544561	 1.850230	 -0.436504
C	 1.838777	 1.723109	 -1.389639
C	 0.569680	 0.890692	 -1.352025
C	 2.167518	 2.390316	 -2.709457
C	 0.291004	 0.242674	 0.000989
H	 -0.258633	 1.532446	 -1.649411
H	 0.643551	 0.134968	 -2.132938
C	 -0.994322	 -0.586602	 0.000262
H	 0.231019	 1.016052	 0.760210
H	 1.134073	 -0.383189	 0.276087
C	 -2.259874	 0.272531	 0.000494
H	 -1.004862	 -1.240012	 -0.870939
H	 -1.005220	 -1.241071	 0.870675
C	 -3.520014	 -0.505787	 -0.381975
H	 -2.129145	 1.105230	 -0.688375
H	 -2.395224	 0.712793	 0.986824
C	 -4.779957	 0.359211	 -0.379719
H	 -3.386373	 -0.945353	 -1.368253
H	 -3.652592	 -1.337542	 0.306840
H	 -4.692168	 1.181424	 -1.084283
H	 -5.655864	 -0.220108	 -0.655179
H	 -4.960941	 0.785528	 0.602952
H	 1.363265	 3.056339	 -3.008133
H	 3.085857	 2.952964	 -2.615040
H	 2.277291	 1.646185	 -3.492945

9 5 8 12 F

15 11 14 18 F

1 2 3 6 F

9 5 3 6 F

