%nprocshared=1
%mem=2GB
#HF/6-31G* nosymm scf=tight 

Mol

0 1
H	 -2.175719	 1.155429	 1.997493
C	 -1.754089	 0.625126	 1.164197
C	 -2.563636	 0.110448	 0.165854
C	 -0.389783	 0.448818	 1.077409
H	 -3.630093	 0.237574	 0.215356
C	 -2.007203	 -0.569972	 -0.900982
H	 0.263231	 0.834375	 1.832191
C	 0.154804	 -0.237046	 -0.000077
H	 -2.652327	 -0.961593	 -1.665536
C	 -0.633803	 -0.769681	 -1.025468
N	 1.611208	 -0.370857	 -0.000034
C	 -0.134219	 -1.528879	 -2.234999
O	 2.274126	 0.622059	 -0.008063
O	 2.068510	 -1.474748	 0.007823
H	 0.400328	 -2.424308	 -1.949350
H	 -0.979348	 -1.810354	 -2.850551
H	 0.542880	 -0.930128	 -2.828428
