%nprocshared=1
%mem=2GB
#HF/6-31G* nosymm scf=tight 

Mol

0 1
O	 -7.180112	 0.627819	 -1.194383
C	 -6.456580	 1.575247	 -1.234891
C	 -5.119514	 1.604139	 -0.516310
C	 -6.829891	 2.820423	 -2.012921
C	 -4.798086	 0.324849	 0.250719
H	 -4.348088	 1.813501	 -1.256214
H	 -5.118876	 2.464215	 0.152024
C	 -3.444756	 0.391187	 0.960550
H	 -4.813898	 -0.515328	 -0.436291
H	 -5.585392	 0.136188	 0.973702
C	 -2.259874	 0.272531	 0.000494
H	 -3.368170	 1.328178	 1.510304
H	 -3.384762	 -0.402576	 1.703791
C	 -2.299309	 1.292585	 -1.138781
H	 -2.235358	 -0.732207	 -0.417740
H	 -1.332415	 0.392193	 0.557717
C	 -3.566352	 2.147124	 -1.131721
H	 -1.427462	 1.940154	 -1.072741
H	 -2.220829	 0.772174	 -2.091079
H	 -3.656394	 2.706940	 -0.205088
H	 -3.564796	 2.860504	 -1.950126
H	 -4.455333	 1.530813	 -1.231810
H	 -6.084555	 3.028883	 -2.774916
H	 -7.795107	 2.682969	 -2.480146
H	 -6.866011	 3.682489	 -1.353244

9 5 8 12 F

15 11 8 12 F

1 2 3 6 F

9 5 3 6 F

