%nprocshared=1
%mem=2GB
#HF/6-31G* nosymm scf=tight 

Mol

0 1
H	 1.532577	 -0.465037	 2.316482
C	 1.159272	 -1.200873	 1.610995
C	 0.643371	 -2.445452	 2.332137
H	 0.370140	 -0.732053	 1.030634
H	 1.969563	 -1.447359	 0.930207
C	 0.115313	 -3.507393	 1.365054
H	 -0.144868	 -2.159520	 3.020994
H	 1.445997	 -2.872175	 2.931630
C	 1.056770	 -3.798154	 0.196129
H	 -0.072040	 -4.429290	 1.904172
H	 -0.839037	 -3.176997	 0.961205
C	 2.321950	 -4.550065	 0.582381
H	 0.545242	 -4.411918	 -0.543738
H	 1.329286	 -2.880771	 -0.320900
C	 3.475324	 -4.538016	 -0.405696
O	 2.405614	 -5.145351	 1.614389
C	 3.142513	 -5.197708	 -1.752249
H	 4.303638	 -5.051040	 0.068030
H	 3.775100	 -3.505443	 -0.574848
C	 3.906992	 -6.506058	 -1.962969
H	 2.073565	 -5.394231	 -1.800676
H	 3.371148	 -4.517137	 -2.568350
C	 3.584233	 -7.172245	 -3.299729
H	 3.675183	 -7.191428	 -1.151430
H	 4.975620	 -6.311267	 -1.903941
H	 2.526789	 -7.408725	 -3.374670
H	 3.837980	 -6.523738	 -4.133494
H	 4.139105	 -8.097216	 -3.419829

10 6 3 2 F

16 12 15 17 F

