%nprocshared=1
%mem=2GB
#HF/6-31G* nosymm scf=tight 

Mol

0 1
H	 -2.153054	 -2.250733	 0.000000
O	 -2.462445	 -1.355403	 0.000000
C	 -1.434260	 -0.483044	 0.000000
C	 -0.255265	 -0.886484	 0.617993
C	 -1.517398	 0.767793	 -0.581727
H	 -0.213932	 -1.862715	 1.063211
C	 0.831397	 -0.036989	 0.649902
H	 -2.422971	 1.092037	 -1.062725
C	 -0.411834	 1.613671	 -0.541166
H	 1.738553	 -0.356148	 1.129252
C	 0.766928	 1.222859	 0.071181
C	 -0.506776	 2.920698	 -1.152038
H	 1.610482	 1.885774	 0.094423
N	 -0.583833	 3.947278	 -1.632766

14 12 9 5 F

