%nprocshared=1
%mem=2GB
#HF/6-31G* nosymm scf=tight 

Mol

0 1
H	 2.261501	 2.530596	 -0.056528
N	 1.470857	 1.922872	 -0.151925
C	 1.865559	 0.531981	 0.018834
H	 1.100262	 2.072304	 -1.071250
C	 0.645745	 -0.382037	 -0.029944
H	 2.342656	 0.441631	 0.989954
H	 2.597430	 0.199562	 -0.721613
C	 -0.679275	 0.379305	 0.025956
H	 0.698998	 -0.976915	 -0.937203
H	 0.693479	 -1.083846	 0.802235
C	 -1.903357	 -0.536963	 -0.023547
H	 -0.726309	 1.082987	 -0.803784
H	 -0.717680	 0.977832	 0.934877
C	 -3.225172	 0.228290	 0.028445
H	 -1.867824	 -1.134999	 -0.931459
H	 -1.860449	 -1.239604	 0.805977
H	 -3.313397	 0.915643	 -0.808262
H	 -4.073500	 -0.448134	 -0.008893
H	 -3.306061	 0.809945	 0.942516

12 8 5 9 F

12 8 11 15 F

1 2 3 6 F

