%nprocshared=1
%mem=2GB
#HF/6-31G* nosymm scf=tight 

Mol

0 1
H	 1.148083	 -1.049780	 0.784252
O	 1.319262	 -0.618148	 -0.041729
C	 0.709265	 0.639550	 -0.033818
C	 1.031920	 1.474362	 1.177612
H	 -0.358616	 0.457974	 -0.076998
H	 0.965964	 1.199817	 -0.932279
C	 1.684964	 1.052084	 2.241557
H	 0.680558	 2.493760	 1.134540
H	 2.033348	 0.038741	 2.326369
H	 1.881567	 1.704949	 3.072876

5 3 4 7 F

3 4 7 9 F

