%nprocshared=1
%mem=2GB
#HF/6-31G* nosymm scf=tight 

Mol

0 1
H	 3.396400	 0.689453	 -0.677922
C	 2.684894	 0.480408	 0.112638
C	 1.322923	 0.120767	 -0.479465
H	 3.083808	 -0.332669	 0.711092
H	 2.621335	 1.362159	 0.742773
C	 0.306652	 -0.176050	 0.621399
H	 1.412661	 -0.751492	 -1.118635
H	 0.950430	 0.935596	 -1.089026
N	 -1.068537	 -0.011044	 0.085269
H	 0.372515	 -1.192590	 0.973735
H	 0.391664	 0.520566	 1.441230
O	 -1.656956	 -0.997225	 -0.235017
O	 -1.478635	 1.104830	 -0.018026

12 9 6 3 F

