%nprocshared=1
%mem=2GB
#HF/6-31G* nosymm scf=tight 

Mol

0 1
H	 2.451652	 -2.178703	 0.543297
O	 2.773837	 -1.297590	 0.410870
C	 1.759943	 -0.431505	 0.213148
C	 0.607034	 -0.924774	 -0.389703
C	 1.833672	 0.897242	 0.583455
H	 0.574293	 -1.961196	 -0.668301
C	 -0.465241	 -0.087683	 -0.618979
H	 2.709385	 1.303945	 1.049553
C	 0.738501	 1.709890	 0.338460
H	 -1.351414	 -0.476856	 -1.084919
C	 -0.415683	 1.251577	 -0.255978
N	 0.821733	 3.114725	 0.732156
H	 -1.239279	 1.913197	 -0.427307
O	 1.750207	 3.447460	 1.405398
O	 -0.042100	 3.847082	 0.358379

11 9 12 14 F

