%nprocshared=1
%mem=2GB
#HF/6-31G* nosymm scf=tight 

Mol

0 1
H	 2.805284	 -1.508965	 -0.832883
O	 2.579973	 -1.493482	 -1.752330
C	 1.684010	 -2.534444	 -2.036294
C	 0.558582	 -2.586092	 -1.018251
H	 1.268611	 -2.444687	 -3.036167
H	 2.249240	 -3.454969	 -1.996329
O	 -0.043959	 -1.331029	 -0.978982
H	 0.953867	 -2.852625	 -0.036064
H	 -0.155691	 -3.356702	 -1.302081
C	 -0.381609	 -0.813417	 -2.226865
H	 0.366496	 -0.106062	 -2.579876
H	 -0.435693	 -1.641239	 -2.920182
H	 -1.346371	 -0.311084	 -2.200645

8 4 3 5 F

1 2 3 5 F

10 7 4 8 F

