%nprocshared=1
%mem=2GB
#HF/6-31G* nosymm scf=tight 

Mol

0 1
H	 -1.070890	 -1.366565	 0.180696
O	 -1.422729	 -0.573567	 -0.196946
C	 -0.731407	 0.539437	 0.309156
C	 0.680193	 0.672443	 -0.251532
H	 -1.319765	 1.404033	 0.030086
H	 -0.700012	 0.506517	 1.397677
C	 1.516808	 -0.599929	 -0.114249
H	 0.611516	 0.953614	 -1.298372
H	 1.176637	 1.490510	 0.266011
H	 1.086681	 -1.420465	 -0.680735
H	 2.523746	 -0.446449	 -0.487728
H	 1.595281	 -0.911138	 0.924623

1 2 3 4 F

