%nprocshared=1
%mem=2GB
#HF/6-31G* nosymm scf=tight 

Mol

0 1
H	 0.025085	 -3.568419	 1.010203
O	 0.319084	 -2.757642	 0.606480
C	 -0.696453	 -1.895070	 0.623327
C	 -0.318135	 -0.576402	 0.000164
O	 -1.755274	 -2.173810	 1.083977
C	 -1.454360	 0.441875	 -0.000474
H	 0.548086	 -0.200344	 0.537977
H	 0.027331	 -0.782279	 -1.009426
C	 -2.826123	 -0.230780	 0.000056
H	 -1.357605	 1.085198	 -0.868380
H	 -1.357504	 1.086451	 0.866496
H	 -2.959731	 -0.858053	 -0.876869
H	 -3.619374	 0.509403	 -0.000080
H	 -2.959371	 -0.857318	 0.877556

2 3 4 7 F

1 2 3 5 F

