%nprocshared=1
%mem=2GB
#HF/6-31G* nosymm scf=tight 

Mol

0 1
H	 2.591676	 2.013956	 0.335017
O	 3.341076	 1.666752	 -0.126416
C	 3.569581	 0.339145	 0.272707
C	 2.539767	 -0.640285	 -0.279495
H	 4.553106	 0.084646	 -0.100901
H	 3.608576	 0.269204	 1.359154
C	 1.115811	 -0.397273	 0.226630
H	 2.556196	 -0.582511	 -1.364741
H	 2.852081	 -1.648031	 -0.010655
C	 0.115918	 -1.429151	 -0.302766
H	 0.797950	 0.599468	 -0.066350
H	 1.109961	 -0.420744	 1.316472
C	 -0.783974	 -0.929754	 -1.439048
H	 0.656316	 -2.314027	 -0.634147
H	 -0.517109	 -1.751985	 0.521101
C	 -0.054942	 -0.618142	 -2.748968
H	 -1.539636	 -1.687708	 -1.634743
H	 -1.323864	 -0.044194	 -1.107176
C	 -1.005920	 -0.225474	 -3.881615
H	 0.524447	 -1.488681	 -3.053238
H	 0.660761	 0.186171	 -2.596807
C	 -0.280283	 0.092321	 -5.188566
H	 -1.716577	 -1.031630	 -4.050633
H	 -1.592584	 0.638299	 -3.575663
H	 0.290134	 -0.763517	 -5.538410
H	 -0.980961	 0.364942	 -5.971741
H	 0.412041	 0.919970	 -5.061883

14 10 13 16 F

10 7 4 8 F

8 4 3 2 F

10 13 16 20 F

20 16 19 22 F

4 3 2 1 F

