%nprocshared=1
%mem=2GB
#HF/6-31G* nosymm scf=tight 

Mol

0 1
H	 -3.161837	 0.500524	 -0.000234
C	 -2.367097	 -0.232926	 -0.000000
O	 -1.158440	 0.455814	 -0.000122
H	 -2.468853	 -0.861886	 -0.882833
H	 -2.468942	 -0.861421	 0.883154
C	 -1.058687	 1.440634	 0.983775
C	 0.300233	 2.109559	 0.871797
H	 -1.182068	 0.997128	 1.972703
H	 -1.854304	 2.176601	 0.860266
C	 0.996522	 2.248432	 2.224859
H	 0.915097	 1.528149	 0.191674
H	 0.166824	 3.086088	 0.416504
H	 1.161708	 1.279140	 2.687041
H	 1.962946	 2.728962	 2.115487
H	 0.407733	 2.847639	 2.913831

6 3 2 4 F

8 6 3 2 F

