%nprocshared=1
%mem=2GB
#HF/6-31G* nosymm scf=tight opt=ModRedundant

Mol

0 1
H	 2.611000	 0.636000	 0.213000
O	 2.107000	 -0.095000	 -0.116000
C	 0.788000	 -0.003000	 0.350000
H	 0.781000	 0.030000	 1.440000
C	 -0.022000	 -1.203000	 -0.127000
C	 -0.004000	 1.186000	 -0.195000
H	 0.240000	 -1.384000	 -1.165000
H	 0.205000	 -2.106000	 0.428000
C	 -1.494000	 -0.760000	 0.002000
H	 0.196000	 1.263000	 -1.260000
H	 0.268000	 2.133000	 0.263000
C	 -1.467000	 0.794000	 0.061000
H	 -2.086000	 -1.120000	 -0.832000
H	 -1.945000	 -1.166000	 0.901000
H	 -2.142000	 1.247000	 -0.656000
H	 -1.780000	 1.136000	 1.043000
