%nprocshared=1
%mem=2GB
#HF/6-31G* nosymm scf=tight 

Mol

0 1
H	 -3.161837	 0.500524	 -0.000234
C	 -2.367097	 -0.232926	 -0.000000
O	 -1.158440	 0.455814	 -0.000122
H	 -2.468853	 -0.861886	 -0.882833
H	 -2.468942	 -0.861421	 0.883154
C	 -1.058687	 1.440634	 0.983775
C	 0.300233	 2.109559	 0.871797
H	 -1.182068	 0.997128	 1.972703
H	 -1.854304	 2.176601	 0.860266
C	 1.333454	 1.221610	 0.179783
H	 0.181499	 3.041114	 0.327033
H	 0.638511	 2.371123	 1.869720
H	 1.025019	 0.967966	 -0.830641
H	 2.293080	 1.723234	 0.113937
H	 1.484809	 0.292759	 0.722674

6 3 2 4 F

8 6 3 2 F

