%nprocshared=1
%mem=2GB
#HF/6-31G* nosymm scf=tight 

Mol

0 1
O	 1.193023	 1.330472	 -0.955394
C	 0.140502	 1.681556	 -1.381988
C	 -1.132561	 0.871331	 -1.354793
O	 -0.054281	 2.863688	 -1.952602
C	 -1.412532	 0.227344	 -0.000452
H	 -1.943418	 1.530676	 -1.652331
H	 -1.057793	 0.122680	 -2.138812
C	 -0.542020	 -1.005435	 0.248206
H	 -2.461754	 -0.045374	 0.056664
H	 -1.247985	 0.958541	 0.784901
C	 -0.982905	 -2.214277	 -0.576006
H	 0.495063	 -0.770667	 0.017077
H	 -0.567957	 -1.261424	 1.305498
H	 -0.935054	 -2.001158	 -1.639934
H	 -0.349594	 -3.074116	 -0.381403
H	 -2.005434	 -2.495794	 -0.341862
C	 1.065166	 3.726192	 -2.042424
H	 1.444631	 3.960080	 -1.058153
H	 0.709774	 4.621320	 -2.528624
H	 1.850932	 3.269393	 -2.626729

9 5 8 12 F

1 2 3 6 F

1 2 4 17 F

