%nprocshared=1
%mem=2GB
#HF/6-31G* nosymm scf=tight 

Mol

0 1
H	 -1.040455	 0.005172	 -0.603639
N	 -0.626943	 -0.667432	 -0.000092
C	 -1.072588	 -2.038793	 -0.097482
C	 0.325755	 -0.252874	 0.869779
H	 -1.953624	 -2.117232	 -0.725676
H	 -1.317473	 -2.384663	 0.893545
H	 -0.294082	 -2.672394	 -0.509197
C	 1.674978	 -0.919497	 0.690344
O	 0.127974	 0.574320	 1.716447
H	 2.068026	 -0.726742	 -0.302990
H	 2.359261	 -0.526889	 1.427442
H	 1.590945	 -1.994555	 0.814939

4 2 3 5 F

