%nprocshared=1
%mem=2GB
#HF/6-31G* nosymm scf=tight 

Mol

0 1
H	 2.451652	 -2.178703	 0.543297
O	 2.773837	 -1.297590	 0.410870
C	 1.759943	 -0.431505	 0.213148
C	 1.059856	 -0.530618	 -0.985183
C	 1.407312	 0.526119	 1.144137
H	 1.353194	 -1.283205	 -1.692589
C	 0.011741	 0.327504	 -1.246231
H	 1.929263	 0.624891	 2.075447
C	 0.349782	 1.371530	 0.849643
H	 -0.523303	 0.243970	 -2.173921
C	 -0.361956	 1.298343	 -0.326631
N	 -0.019143	 2.382788	 1.837945
H	 -1.172713	 1.971139	 -0.514844
O	 0.485345	 2.312050	 2.918000
O	 -0.802334	 3.219697	 1.508612

11 9 12 14 F

