%nprocshared=1
%mem=2GB
#HF/6-31G* nosymm scf=tight 

Mol

0 1
H	 -3.135461	 -1.215070	 0.001379
O	 -2.310168	 -0.871793	 -0.309793
C	 -2.026376	 0.340750	 0.341611
C	 -0.673256	 0.843270	 -0.132153
H	 -2.792215	 1.080697	 0.115987
H	 -2.013526	 0.200402	 1.421792
C	 0.486613	 -0.083066	 0.235839
H	 -0.715586	 0.970948	 -1.210718
H	 -0.508072	 1.829858	 0.297090
C	 1.806126	 0.323821	 -0.422297
H	 0.234613	 -1.099150	 -0.049788
H	 0.612277	 -0.087505	 1.317980
C	 1.851365	 0.000524	 -1.915316
H	 1.964512	 1.390794	 -0.280165
H	 2.632041	 -0.176373	 0.079812
H	 1.058059	 0.514177	 -2.450774
H	 2.797031	 0.301902	 -2.355580
H	 1.730110	 -1.065037	 -2.089634

14 10 7 11 F

2 3 4 8 F

1 2 3 4 F

