%nprocshared=1
%mem=2GB
#HF/6-31G* nosymm scf=tight 

Mol

0 1
H	 -0.625187	 -0.288128	 -0.918669
N	 -0.626943	 -0.667432	 -0.000092
C	 -1.645878	 -1.635010	 0.337963
C	 0.325755	 -0.252874	 0.869779
H	 -2.401791	 -1.690364	 -0.438270
H	 -2.112156	 -1.325404	 1.259080
H	 -1.215317	 -2.621295	 0.475402
C	 1.674978	 -0.919497	 0.690344
O	 0.127974	 0.574320	 1.716447
H	 2.068026	 -0.726742	 -0.302990
H	 2.359261	 -0.526889	 1.427442
H	 1.590945	 -1.994555	 0.814939

4 2 3 5 F

