%nprocshared=1
%mem=2GB
#HF/6-31G* nosymm scf=tight 

Mol

0 1
H	 -3.161837	 0.500524	 -0.000234
C	 -2.367097	 -0.232926	 -0.000000
O	 -1.158440	 0.455814	 -0.000122
H	 -2.468853	 -0.861886	 -0.882833
H	 -2.468942	 -0.861421	 0.883154
C	 -1.058687	 1.440634	 0.983775
C	 0.401274	 1.601362	 1.370226
H	 -1.652612	 1.162080	 1.855302
H	 -1.457982	 2.385019	 0.611472
C	 0.916843	 0.430731	 2.206103
H	 0.988592	 1.701339	 0.462634
H	 0.511778	 2.531610	 1.918976
H	 0.837634	 -0.508040	 1.664938
H	 1.960118	 0.571733	 2.467908
H	 0.356915	 0.327643	 3.131445

6 3 2 4 F

11 7 6 8 F

