%nprocshared=1
%mem=2GB
#HF/6-31G* nosymm scf=tight 

Mol

0 1
O	 1.495567	 1.909057	 -0.431871
C	 0.671536	 1.919224	 -1.288602
C	 -0.630374	 1.156135	 -1.264211
O	 0.793446	 2.626166	 -2.405073
C	 -0.823008	 0.326187	 0.001381
H	 -1.432559	 1.878701	 -1.387140
H	 -0.657105	 0.531228	 -2.152746
C	 -2.149452	 -0.435131	 -0.000098
H	 -0.772801	 0.978257	 0.867679
H	 0.002753	 -0.371345	 0.100759
C	 -3.368779	 0.488503	 -0.000883
H	 -2.193746	 -1.087250	 -0.871175
H	 -2.195311	 -1.087803	 0.870418
C	 -3.346354	 1.505125	 -1.141597
H	 -3.422266	 1.013619	 0.950187
H	 -4.273627	 -0.111280	 -0.069069
H	 -2.469560	 2.143689	 -1.080920
H	 -4.223185	 2.144600	 -1.115337
H	 -3.327221	 1.009791	 -2.108339
C	 1.974215	 3.393289	 -2.554278
H	 2.056247	 4.122702	 -1.761337
H	 1.886453	 3.887349	 -3.509306
H	 2.846143	 2.755259	 -2.541438

15 11 8 12 F

1 2 3 6 F

9 5 3 6 F

1 2 4 20 F

