%nprocshared=1
%mem=2GB
#HF/6-31G* nosymm scf=tight 

Mol

0 1
H	 -11.054687	 1.152591	 -0.165097
C	 -10.048318	 1.072298	 0.264317
C	 -8.941042	 1.619110	 -0.600292
O	 -9.893395	 0.581696	 1.335325
C	 -7.738264	 0.669330	 -0.686879
H	 -9.348409	 1.836796	 -1.580789
H	 -8.622482	 2.560634	 -0.154528
C	 -6.979920	 0.522738	 0.634758
H	 -8.092203	 -0.305241	 -1.009715
H	 -7.058685	 1.016877	 -1.463500
C	 -6.253274	 1.803461	 1.050150
H	 -6.261603	 -0.289517	 0.544706
H	 -7.668507	 0.228976	 1.424753
C	 -7.144331	 3.045428	 0.963640
H	 -5.879662	 1.683263	 2.063904
H	 -5.379006	 1.943832	 0.415850
C	 -8.476090	 2.930578	 1.714174
H	 -7.340708	 3.275648	 -0.082366
H	 -6.595566	 3.895780	 1.362978
C	 -9.441535	 1.892099	 1.140506
H	 -8.962502	 3.902772	 1.700334
H	 -8.281521	 2.704290	 2.760528
H	 -9.641833	 2.084110	 0.089658
H	 -9.050397	 0.883621	 1.223924
H	 -10.390864	 1.916855	 1.666962

6 3 5 8 F

6 3 2 4 F

3 5 8 12 F

12 8 11 14 F

20 17 14 18 F

