%nprocshared=1
%mem=2GB
#HF/6-31G* nosymm scf=tight 

Mol

0 1
O	 -2.042549	 -1.228399	 -0.269030
C	 -1.653912	 -0.146171	 0.050137
C	 -0.332303	 0.024011	 0.778412
C	 -2.438579	 1.106236	 -0.272369
C	 -0.498179	 0.921690	 2.014750
H	 0.067201	 -0.942163	 1.073855
H	 0.366943	 0.482886	 0.088187
C	 -0.808394	 2.374295	 1.650418
H	 0.407771	 0.888994	 2.617467
H	 -1.296384	 0.518451	 2.630711
C	 -1.918819	 2.498076	 0.607901
H	 -1.092056	 2.919576	 2.547986
H	 0.094857	 2.849720	 1.275351
H	 -2.845984	 2.061191	 0.967830
H	 -1.649583	 1.989585	 -0.313181
H	 -2.115142	 3.537980	 0.366892
H	 -3.277823	 0.863061	 -0.908988
H	 -1.806773	 1.843019	 -0.759671
H	 -2.802853	 1.554979	 0.648059

11 8 5 9 F

9 5 3 2 F

