%nprocshared=1
%mem=2GB
#HF/6-31G* nosymm scf=tight 

Mol

0 1
H	 -2.499100	 -0.730091	 -0.745082
O	 -2.347518	 -0.290803	 0.079804
C	 -1.184022	 0.487508	 -0.006784
C	 0.062599	 -0.378592	 0.031606
H	 -1.176523	 1.099369	 -0.904519
H	 -1.187323	 1.153111	 0.844927
O	 -0.334129	 -1.693698	 0.261566
H	 0.732423	 -0.036158	 0.822843
H	 0.599101	 -0.288633	 -0.911080
C	 0.709644	 -2.615044	 0.289866
H	 1.418875	 -2.388538	 1.083790
H	 0.279774	 -3.590233	 0.471857
H	 1.246144	 -2.636580	 -0.656441

1 2 3 5 F

10 7 4 8 F

4 7 10 13 F

