%nprocshared=1
%mem=2GB
#HF/6-31G* nosymm scf=tight 

Mol

0 1
H	 -3.918283	 -1.427527	 -0.970217
C	 -2.850435	 -1.303229	 -1.002380
C	 -2.198454	 -1.239236	 -2.224662
C	 -2.130651	 -1.207553	 0.178167
H	 -2.757869	 -1.313569	 -3.139482
C	 -0.825394	 -1.079404	 -2.265210
H	 -2.637771	 -1.257370	 1.124714
C	 -0.756129	 -1.047528	 0.140006
H	 -0.304209	 -1.027848	 -3.201895
C	 -0.099734	 -0.983030	 -1.083410
H	 -0.195154	 -0.973051	 1.051094
C	 1.377298	 -0.811633	 -1.181686
O	 1.970282	 -0.730723	 0.000018
O	 1.973385	 -0.752265	 -2.211256
C	 3.377318	 -0.566646	 -0.000065
H	 3.695437	 -0.028981	 -0.881264
H	 3.789299	 -1.563704	 0.000236
H	 3.695516	 -0.028316	 0.880770

10 12 13 15 F

13 12 10 6 F

