%nprocshared=1
%mem=2GB
#HF/6-31G* nosymm scf=tight 

Mol

0 1
O	 0.304066	 0.904778	 1.461156
C	 0.315328	 -0.067364	 0.776643
C	 1.461364	 -1.044687	 0.668455
O	 -0.698257	 -0.426125	 0.001050
C	 2.650448	 -0.670447	 1.544235
H	 1.743588	 -1.099956	 -0.378704
H	 1.075907	 -2.027234	 0.923971
H	 3.041904	 0.302970	 1.274818
H	 3.443686	 -1.401596	 1.430163
H	 2.368279	 -0.632995	 2.589368
C	 -1.853104	 0.406779	 0.000512
C	 -3.066105	 -0.499277	 -0.000959
H	 -1.828410	 1.043074	 -0.873618
H	 -1.829857	 1.042383	 0.875188
H	 -3.071820	 -1.133106	 -0.880383
H	 -3.972708	 0.097145	 -0.001528
H	 -3.073405	 -1.133813	 0.877999

4 2 3 6 F

11 4 2 3 F

