%nprocshared=1
%mem=2GB
#HF/6-31G* nosymm scf=tight 

Mol

0 1
H	 -0.367348	 2.047014	 -0.308205
C	 0.352277	 1.337084	 0.083769
N	 -0.000016	 0.000074	 -0.335546
H	 1.328359	 1.600444	 -0.307950
H	 0.381933	 1.450534	 1.172486
C	 -0.020588	 -0.925810	 0.773772
C	 -1.237343	 -0.023594	 -1.081613
H	 -0.217730	 -1.928647	 0.412101
H	 0.945691	 -0.932273	 1.265428
H	 -0.780518	 -0.679903	 1.522717
H	 -1.159289	 0.628324	 -1.944332
H	 -1.432097	 -1.028387	 -1.439246
H	 -2.100367	 0.299103	 -0.490019
