%nprocshared=1
%mem=2GB
#HF/6-31G* nosymm scf=tight 

Mol

0 1
O	 -0.488453	 0.057968	 1.132425
C	 -0.451170	 -1.129930	 1.097049
C	 0.801727	 -1.959116	 0.945507
O	 -1.528589	 -1.897310	 1.185968
C	 1.124911	 -2.785238	 2.184071
H	 1.613075	 -1.280220	 0.700432
H	 0.669725	 -2.590969	 0.072237
H	 1.272053	 -2.149836	 3.048928
H	 2.030738	 -3.360307	 2.024106
H	 0.320287	 -3.472711	 2.414906
C	 -1.812374	 -2.762251	 0.091097
C	 -2.215959	 -1.893113	 -1.081093
H	 -2.603487	 -3.442679	 0.375250
H	 -0.932214	 -3.350004	 -0.131290
H	 -3.095510	 -1.306873	 -0.840529
H	 -2.442258	 -2.514797	 -1.941294
H	 -1.415124	 -1.213682	 -1.349967

2 4 11 13 F

4 2 3 6 F

