%nprocshared=1
%mem=2GB
#HF/6-31G* nosymm scf=tight opt=ModRedundant

Mol

0 1
O	 -2.118000	 -1.272000	 -0.272000
C	 -1.730000	 -0.190000	 0.049000
C	 -0.409000	 -0.020000	 0.777000
C	 -2.516000	 1.062000	 -0.273000
C	 0.769000	 -0.046000	 -0.209000
H	 -0.401000	 0.910000	 1.339000
H	 -0.312000	 -0.840000	 1.479000
C	 2.124000	 0.092000	 0.487000
H	 0.657000	 0.756000	 -0.937000
H	 0.735000	 -0.978000	 -0.765000
C	 3.298000	 0.057000	 -0.491000
H	 2.148000	 1.023000	 1.049000
H	 2.235000	 -0.708000	 1.215000
H	 3.233000	 0.868000	 -1.212000
H	 3.318000	 -0.877000	 -1.044000
H	 4.245000	 0.154000	 0.031000
H	 -3.355000	 0.819000	 -0.910000
H	 -1.885000	 1.800000	 -0.760000
H	 -2.881000	 1.510000	 0.648000
