%nprocshared=1
%mem=2GB
#HF/6-31G* nosymm scf=tight 

Mol

0 1
O	 -2.821601	 1.309235	 -0.001213
C	 -2.668563	 0.129746	 -0.000350
C	 -3.801572	 -0.864014	 -0.000442
O	 -1.481751	 -0.454642	 0.000584
H	 -4.417280	 -0.689587	 -0.874708
H	 -3.443784	 -1.883046	 -0.000565
H	 -4.417179	 -0.689832	 0.873954
C	 -0.334255	 0.388708	 0.000906
C	 0.891947	 -0.504646	 0.000751
H	 -0.365390	 1.025305	 -0.873475
H	 -0.365484	 1.024911	 0.875569
C	 0.581086	 -1.909231	 -0.519804
H	 1.285396	 -0.561059	 1.011916
H	 1.662538	 -0.043172	 -0.610553
C	 1.805397	 -2.826472	 -0.527339
H	 -0.199335	 -2.359253	 0.091350
H	 0.177968	 -1.842294	 -1.528812
C	 1.494559	 -4.229761	 -1.046017
H	 2.209294	 -2.894770	 0.480271
H	 2.585439	 -2.379396	 -1.139489
H	 0.741095	 -4.716458	 -0.433293
H	 2.381175	 -4.855940	 -1.039166
H	 1.120401	 -4.197249	 -2.065310

2 4 8 10 F

16 12 9 13 F

19 15 12 16 F

1 2 4 8 F

