%nprocshared=1
%mem=2GB
#HF/6-31G* nosymm scf=tight 

Mol

0 1
H	 -1.774183	 -0.007488	 2.319885
C	 -2.614932	 0.630428	 2.020175
C	 -3.731098	 -0.082816	 1.300405
O	 -2.600240	 1.792672	 2.266596
C	 -4.199259	 0.670220	 0.047402
H	 -3.397848	 -1.086042	 1.061258
H	 -4.561896	 -0.164881	 2.000188
C	 -4.902224	 1.994114	 0.357958
H	 -3.335408	 0.859629	 -0.582812
H	 -4.862119	 0.029755	 -0.532408
C	 -6.253274	 1.803461	 1.050150
H	 -5.043414	 2.547843	 -0.567946
H	 -4.262853	 2.613453	 0.984187
C	 -7.144331	 3.045428	 0.963640
H	 -6.759475	 0.950440	 0.605350
H	 -6.089580	 1.551128	 2.097010
C	 -8.476090	 2.930578	 1.714174
H	 -7.340708	 3.275648	 -0.082366
H	 -6.595566	 3.895780	 1.362978
C	 -9.441535	 1.892099	 1.140506
H	 -8.962502	 3.902772	 1.700334
H	 -8.281521	 2.704290	 2.760528
H	 -9.641833	 2.084110	 0.089658
H	 -9.050397	 0.883621	 1.223924
H	 -10.390864	 1.916855	 1.666962

6 3 5 8 F

6 3 2 4 F

3 5 8 12 F

8 11 14 18 F

20 17 14 18 F

