%nprocshared=1
%mem=2GB
#HF/6-31G* nosymm scf=tight 

Mol

0 1
H	 -2.646374	 -0.642757	 1.268656
C	 -2.083525	 -0.384536	 0.393091
O	 -0.807605	 -0.127164	 0.768327
F	 -2.118945	 -1.383102	 -0.486752
F	 -2.621877	 0.670592	 -0.209486
C	 -0.165321	 -1.065004	 1.556117
C	 -0.326403	 -2.412364	 0.864138
Cl	 -0.866908	 -1.110799	 3.181815
H	 0.886161	 -0.861605	 1.659984
F	 -1.582616	 -2.802736	 0.905106
F	 0.401164	 -3.306990	 1.502674
F	 0.063874	 -2.375981	 -0.386595

10 7 6 9 F

9 6 3 2 F

