%nprocshared=1
%mem=2GB
#HF/6-31G* nosymm scf=tight 

Mol

0 1
H	 -4.373815	 1.431142	 -0.926974
N	 -3.523243	 1.509126	 -0.403533
C	 -3.214097	 0.255186	 0.268471
H	 -3.661950	 2.241636	 0.266557
C	 -1.870556	 0.346751	 0.984201
H	 -3.164649	 -0.521172	 -0.488946
H	 -3.984181	 -0.051140	 0.980886
C	 -0.679275	 0.379305	 0.025956
H	 -1.874509	 1.235482	 1.608682
H	 -1.767767	 -0.503272	 1.658168
C	 -0.791153	 1.473151	 -1.037697
H	 -0.584882	 -0.587974	 -0.465277
H	 0.239811	 0.524021	 0.591805
C	 -2.115055	 2.234023	 -0.975523
H	 0.033362	 2.173024	 -0.921214
H	 -0.676491	 1.028719	 -2.024099
H	 -2.243718	 2.718807	 -0.011807
H	 -2.163946	 3.002377	 -1.740928
H	 -2.958889	 1.565841	 -1.123406

6 3 5 9 F

12 8 5 9 F

1 2 3 6 F

