%nprocshared=1
%mem=2GB
#HF/6-31G* nosymm scf=tight 

Mol

0 1
H	 -0.422506	 -1.459103	 -0.564999
N	 -0.626943	 -0.667432	 -0.000092
C	 -1.979713	 -0.158776	 0.000050
C	 0.375042	 -0.121757	 0.730956
H	 -2.520245	 -0.492427	 -0.879443
H	 -1.934741	 0.918111	 -0.004428
H	 -2.517790	 -0.485056	 0.883818
C	 1.714108	 -0.815401	 0.580138
O	 0.225223	 0.833030	 1.442400
H	 2.044741	 -0.788627	 -0.453457
H	 2.440179	 -0.311625	 1.200402
H	 1.643247	 -1.855479	 0.882713

3 2 4 9 F

