%nprocshared=1
%mem=2GB
#HF/6-31G* nosymm scf=tight 

Mol

0 1
H	 -2.646374	 -0.642757	 1.268656
C	 -2.083525	 -0.384536	 0.393091
O	 -0.807605	 -0.127164	 0.768327
F	 -2.118945	 -1.383102	 -0.486752
F	 -2.621877	 0.670592	 -0.209486
C	 0.084052	 0.273579	 -0.209957
C	 -0.384914	 -0.346212	 -1.519953
Cl	 1.728297	 -0.258250	 0.178413
H	 0.106649	 1.342571	 -0.330452
F	 -0.226385	 -1.652459	 -1.493021
F	 0.348837	 0.134869	 -2.503625
F	 -1.643163	 -0.078671	 -1.771356

10 7 6 9 F

6 3 2 4 F

