%nprocshared=1
%mem=2GB
#HF/6-31G* nosymm scf=tight 

Mol

0 1
H	 -2.646374	 -0.642757	 1.268656
C	 -2.083525	 -0.384536	 0.393091
O	 -0.807605	 -0.127164	 0.768327
F	 -2.118945	 -1.383102	 -0.486752
F	 -2.621877	 0.670592	 -0.209486
C	 0.084052	 0.273579	 -0.209957
C	 1.475445	 0.219810	 0.407535
Cl	 -0.287264	 1.912588	 -0.769411
H	 0.069460	 -0.375392	 -1.068092
F	 1.606634	 1.152556	 1.326727
F	 2.367467	 0.446745	 -0.535988
F	 1.731575	 -0.945891	 0.949302

10 7 6 9 F

6 3 2 4 F

