%nprocshared=1
%mem=2GB
#HF/6-31G* nosymm scf=tight 

Mol

0 1
O	 -0.682937	 1.318834	 -0.186099
C	 -0.860635	 0.152188	 -0.042321
C	 -2.173363	 -0.477127	 0.338347
O	 0.083258	 -0.765189	 -0.202595
H	 -2.477673	 -1.180929	 -0.427595
H	 -2.923125	 0.290956	 0.455536
H	 -2.058825	 -1.029004	 1.264191
C	 -0.300604	 -2.138252	 -0.214667
C	 -0.823604	 -2.581741	 1.139008
H	 0.540203	 -2.739051	 -0.526473
H	 -1.074131	 -2.196752	 -0.966819
H	 -1.177688	 -3.606265	 1.078149
H	 -0.043194	 -2.535704	 1.888147
H	 -1.650241	 -1.953651	 1.452997

10 8 4 2 F

