%nprocshared=1
%mem=2GB
#HF/6-31G* nosymm scf=tight 

Mol

0 1
H	 -3.489899	 1.228218	 -1.029938
O	 -3.452007	 0.283848	 -0.965577
C	 -3.181085	 -0.079926	 0.364119
C	 -1.765924	 0.277073	 0.805136
H	 -3.327791	 -1.152017	 0.410903
H	 -3.905698	 0.375695	 1.036898
C	 -1.721079	 1.238638	 1.993370
H	 -1.230017	 -0.639442	 1.053663
H	 -1.242519	 0.713030	 -0.044105
C	 -2.241302	 2.636996	 1.654045
H	 -0.701150	 1.305809	 2.359351
H	 -2.310799	 0.822333	 2.808425
C	 -3.576966	 2.607776	 0.906227
H	 -2.342522	 3.209284	 2.573100
H	 -1.503133	 3.160811	 1.047969
C	 -3.509205	 2.013049	 -0.505107
H	 -3.980055	 3.617781	 0.850513
H	 -4.289955	 2.029470	 1.490201
C	 -4.871078	 1.729440	 -1.141717
H	 -2.945718	 1.084188	 -0.460492
H	 -2.941248	 2.680839	 -1.149844
H	 -5.466707	 1.073444	 -0.512405
H	 -4.752461	 1.243114	 -2.105177
H	 -5.440747	 2.638298	 -1.304872

20 16 13 17 F

17 13 10 7 F

13 10 7 11 F

11 7 4 3 F

1 2 3 5 F

