%nprocshared=1
%mem=2GB
#HF/6-31G* nosymm scf=tight 

Mol

0 1
H	 -0.000158	 1.970498	 0.756846
O	 -0.000074	 1.880206	 -0.189275
C	 -0.000015	 0.544847	 -0.545111
C	 -1.278839	 -0.123794	 -0.051638
C	 1.278751	 -0.123744	 -0.051407
H	 0.000080	 0.490777	 -1.623618
F	 -2.323340	 0.466332	 -0.592298
F	 -1.326055	 -1.401621	 -0.363547
F	 -1.389248	 -0.015456	 1.262771
F	 2.323329	 0.466597	 -0.591677
F	 1.326189	 -1.401510	 -0.363566
F	 1.388797	 -0.015660	 1.263045

7 4 3 6 F

