%nprocshared=1
%mem=2GB
#HF/6-31G* nosymm scf=tight 

Mol

0 1
O	 -5.026420	 -1.983986	 -3.607422
C	 -5.087103	 -0.808169	 -3.416295
C	 -4.606135	 -0.172060	 -2.124408
C	 -5.653103	 0.132695	 -4.460122
C	 -4.048282	 -1.167385	 -1.111312
H	 -3.857936	 0.577022	 -2.380266
H	 -5.438514	 0.385996	 -1.697653
C	 -3.574039	 -0.490353	 0.175733
H	 -3.227723	 -1.714371	 -1.564763
H	 -4.810101	 -1.905498	 -0.881166
C	 -2.259874	 0.272531	 0.000494
H	 -4.342176	 0.195602	 0.529962
H	 -3.452292	 -1.239325	 0.956941
C	 -2.299309	 1.292585	 -1.138781
H	 -1.453939	 -0.436601	 -0.180116
H	 -2.013319	 0.782039	 0.930337
C	 -3.566352	 2.147124	 -1.131721
H	 -1.427462	 1.940154	 -1.072741
H	 -2.220829	 0.772174	 -2.091079
H	 -3.656394	 2.706940	 -0.205088
H	 -3.564796	 2.860504	 -1.950126
H	 -4.455333	 1.530813	 -1.231810
H	 -4.910028	 0.870685	 -4.747922
H	 -5.959032	 -0.430129	 -5.331024
H	 -6.505902	 0.673309	 -4.059991

9 5 8 12 F

15 11 8 12 F

1 2 3 6 F

9 5 3 6 F

