%nprocshared=1
%mem=2GB
#HF/6-31G* nosymm scf=tight 

Mol

0 1
O	 -0.806752	 -1.114546	 1.082146
C	 -0.561929	 -0.074560	 0.531515
C	 -1.597472	 1.034011	 0.503089
N	 0.623947	 0.147590	 -0.102813
H	 -1.868528	 1.298769	 -0.513038
H	 -2.472791	 0.671041	 1.019920
H	 -1.237628	 1.928840	 0.999450
C	 1.855662	 -0.117000	 0.614646
C	 0.764509	 0.945115	 -1.301329
H	 2.692760	 -0.062704	 -0.072621
H	 1.813312	 -1.100602	 1.049012
H	 2.015375	 0.610835	 1.407217
H	 1.585669	 0.556025	 -1.891536
H	 -0.123617	 0.904545	 -1.911674
H	 0.980033	 1.987315	 -1.072898

2 4 8 10 F

