%nprocshared=1
%mem=2GB
#HF/6-31G* nosymm scf=tight 

Mol

0 1
H	 -0.476276	 -1.602177	 -0.302100
N	 -0.626943	 -0.667432	 -0.000092
C	 -1.979713	 -0.158776	 0.000050
C	 0.444693	 0.063575	 0.391560
H	 -2.520245	 -0.492427	 -0.879443
H	 -1.934741	 0.918111	 -0.004428
H	 -2.517790	 -0.485056	 0.883818
C	 1.769406	 -0.668260	 0.310699
O	 0.362628	 1.198646	 0.772473
H	 1.972623	 -0.980353	 -0.708936
H	 2.554688	 -0.006932	 0.644876
H	 1.756193	 -1.555112	 0.936522

3 2 4 9 F

