%nprocshared=1
%mem=2GB
#HF/6-31G* nosymm scf=tight 

Mol

0 1
H	 -5.159996	 4.400753	 -3.074513
C	 -5.250588	 3.631411	 -2.297642
C	 -5.457021	 4.158017	 -0.900258
O	 -5.183479	 2.480710	 -2.585973
C	 -4.552082	 3.466616	 0.128969
H	 -5.300247	 5.230392	 -0.912168
H	 -6.499118	 3.975789	 -0.640488
C	 -4.902224	 1.994114	 0.357958
H	 -3.523451	 3.544264	 -0.210405
H	 -4.600670	 4.006686	 1.073279
C	 -6.253274	 1.803461	 1.050150
H	 -4.119546	 1.530908	 0.955203
H	 -4.908519	 1.464111	 -0.592619
C	 -7.144331	 3.045428	 0.963640
H	 -6.759475	 0.950440	 0.605350
H	 -6.089580	 1.551128	 2.097010
C	 -8.476090	 2.930578	 1.714174
H	 -7.340708	 3.275648	 -0.082366
H	 -6.595566	 3.895780	 1.362978
C	 -9.441535	 1.892099	 1.140506
H	 -8.962502	 3.902772	 1.700334
H	 -8.281521	 2.704290	 2.760528
H	 -9.641833	 2.084110	 0.089658
H	 -9.050397	 0.883621	 1.223924
H	 -10.390864	 1.916855	 1.666962

6 3 5 8 F

6 3 2 4 F

3 5 8 12 F

8 11 14 18 F

20 17 14 18 F

