%nprocshared=1
%mem=2GB
#HF/6-31G* nosymm scf=tight 

Mol

0 1
H	 -0.000158	 1.970498	 0.756846
O	 -0.000074	 1.880206	 -0.189275
C	 -0.000015	 0.544847	 -0.545111
C	 -0.648993	 0.372628	 -1.914473
C	 -0.649203	 -0.285920	 0.556879
H	 1.028219	 0.226045	 -0.629979
F	 0.025368	 1.058121	 -2.812738
F	 -0.676569	 -0.885912	 -2.298761
F	 -1.891206	 0.829192	 -1.907053
F	 0.024837	 -0.138126	 1.677309
F	 -0.676522	 -1.568841	 0.264051
F	 -1.891523	 0.113644	 0.777257

7 4 3 6 F

