%nprocshared=1
%mem=2GB
#HF/6-31G* nosymm scf=tight 

Mol

0 1
H	 2.506245	 2.314633	 -1.744492
O	 1.566291	 2.240076	 -1.831300
C	 1.061824	 1.383609	 -0.916767
C	 1.862786	 0.724974	 0.007334
C	 -0.305913	 1.172184	 -0.921907
H	 2.926973	 0.890921	 0.009632
C	 1.296119	 -0.143811	 0.924815
H	 -0.925731	 1.680289	 -1.635161
C	 -0.865228	 0.300799	 0.000000
H	 1.926131	 -0.647773	 1.635086
C	 -0.069869	 -0.361076	 0.926875
C	 -2.333960	 0.069074	 0.000000
H	 -0.512136	 -1.035473	 1.638629
O	 -2.847347	 -1.003763	 0.000000
H	 -2.943845	 0.977528	 0.000000

4 3 2 1 F

