%nprocshared=1
%mem=2GB
#HF/6-31G* nosymm scf=tight 

Mol

0 1
H	 -2.153054	 -2.250733	 0.000000
O	 -2.462445	 -1.355403	 0.000000
C	 -1.434260	 -0.483044	 0.000000
C	 -0.148134	 -1.012751	 -0.000000
C	 -1.618242	 0.886650	 0.000000
H	 -0.029622	 -2.079948	 -0.000000
C	 0.944059	 -0.169776	 -0.000000
H	 -2.607197	 1.309170	 0.000000
C	 -0.505647	 1.724241	 0.000000
H	 1.934311	 -0.586874	 -0.000000
C	 0.779268	 1.208316	 -0.000000
C	 -0.706484	 3.156079	 0.000000
H	 1.626851	 1.866482	 -0.000000
N	 -0.866877	 4.280881	 0.000000

14 12 9 5 F

