%nprocshared=1
%mem=2GB
#HF/6-31G* nosymm scf=tight 

Mol

0 1
H	 2.187784	 1.694222	 -2.386763
O	 2.416103	 1.161085	 -3.134230
C	 2.913340	 -0.078366	 -2.697685
C	 1.832445	 -0.995865	 -2.136803
H	 3.366493	 -0.536513	 -3.567414
H	 3.702299	 0.065849	 -1.960444
C	 1.157318	 -0.461195	 -0.871419
H	 1.084462	 -1.159335	 -2.908273
H	 2.285364	 -1.962801	 -1.924045
C	 0.115918	 -1.429151	 -0.302766
H	 0.684045	 0.491006	 -1.094337
H	 1.914643	 -0.265005	 -0.112269
C	 0.579824	 -2.886769	 -0.200376
H	 -0.197158	 -1.081291	 0.679997
H	 -0.770261	 -1.393418	 -0.932933
C	 0.727785	 -3.417141	 1.228361
H	 -0.136855	 -3.511425	 -0.729518
H	 1.526011	 -3.000648	 -0.727253
C	 1.089510	 -4.903113	 1.278129
H	 -0.203924	 -3.256926	 1.769064
H	 1.489685	 -2.852392	 1.760217
C	 1.244105	 -5.433542	 2.703053
H	 0.324002	 -5.477389	 0.760738
H	 2.015148	 -5.066637	 0.730097
H	 0.323796	 -5.314109	 3.267847
H	 1.498359	 -6.488998	 2.704892
H	 2.028698	 -4.903778	 3.236090

14 10 7 4 F

10 7 4 8 F

8 4 3 2 F

10 13 16 20 F

20 16 19 22 F

4 3 2 1 F

