%nprocshared=1
%mem=2GB
#HF/6-31G* nosymm scf=tight 

Mol

0 1
H	 1.244666	 -2.264678	 0.354322
C	 0.280856	 -1.787354	 0.427037
O	 0.464886	 -0.454746	 -0.000158
H	 -0.059838	 -1.823286	 1.454977
H	 -0.424925	 -2.306752	 -0.210271
C	 -0.590998	 0.343045	 0.000118
O	 -1.699443	 -0.054298	 0.000227
H	 -0.340329	 1.404368	 0.000207
