%nprocshared=1
%mem=2GB
#HF/6-31G* nosymm scf=tight 

Mol

0 1
H	 -2.646374	 -0.642757	 1.268656
C	 -2.083525	 -0.384536	 0.393091
O	 -0.807605	 -0.127164	 0.768327
F	 -2.118945	 -1.383102	 -0.486752
F	 -2.621877	 0.670592	 -0.209486
C	 0.135928	 -1.118349	 0.568365
C	 0.015908	 -1.559988	 -0.884463
Cl	 -0.142466	 -2.484535	 1.660723
H	 1.139670	 -0.767637	 0.733520
F	 -1.122013	 -2.191606	 -1.080257
F	 0.999245	 -2.394404	 -1.156927
F	 0.086455	 -0.549434	 -1.716194

10 7 6 9 F

9 6 3 2 F

