%nprocshared=1
%mem=2GB
#HF/6-31G* nosymm scf=tight 

Mol

0 1
O	 -0.873217	 -1.376257	 -0.795926
C	 -0.630097	 -0.247328	 -0.462589
C	 -1.729221	 0.798614	 -0.458241
N	 0.623947	 0.147590	 -0.102813
H	 -1.494639	 1.624466	 -1.120830
H	 -2.633583	 0.317550	 -0.798467
H	 -1.893286	 1.200729	 0.535724
C	 1.665360	 -0.855771	 0.000151
C	 0.926333	 1.419683	 0.515724
H	 2.465253	 -0.618490	 -0.692587
H	 1.257730	 -1.821716	 -0.242189
H	 2.081488	 -0.891645	 1.004627
H	 1.919972	 1.731708	 0.216791
H	 0.235921	 2.187041	 0.203593
H	 0.906928	 1.357960	 1.602290

8 4 2 3 F

