%nprocshared=1
%mem=2GB
#HF/6-31G* nosymm scf=tight 

Mol

0 1
O	 1.116477	 1.026459	 -1.559084
C	 0.140502	 1.681556	 -1.381988
C	 -1.024491	 1.301235	 -0.501058
O	 -0.054281	 2.863688	 -1.952602
C	 -0.603438	 0.780705	 0.869746
H	 -1.662552	 2.176171	 -0.410945
H	 -1.611155	 0.562031	 -1.039720
C	 0.335189	 1.746218	 1.595094
H	 -0.120550	 -0.184624	 0.753704
H	 -1.488318	 0.604445	 1.473421
C	 1.745607	 1.750483	 1.007125
H	 -0.075686	 2.752943	 1.553122
H	 0.385140	 1.481404	 2.649347
H	 1.733053	 2.045032	 -0.038216
H	 2.390460	 2.443054	 1.538902
H	 2.197390	 0.764574	 1.066405
C	 1.065166	 3.726192	 -2.042424
H	 1.444631	 3.960080	 -1.058153
H	 0.709774	 4.621320	 -2.528624
H	 1.850932	 3.269393	 -2.626729

9 5 8 12 F

1 2 3 6 F

9 5 3 6 F

