%nprocshared=24
%mem=2GB
#HF/6-31G* nosymm scf=tight 

Mol

0 1
H	 -2.455504	 -1.062989	 3.255514
C	 -2.425350	 -0.963885	 2.187839
C	 -1.271134	 -0.975404	 1.562018
H	 -3.351856	 -0.856911	 1.655811
O	 -1.106875	 -1.598359	 0.365436
H	 -0.396984	 -0.479673	 1.945825
C	 0.177476	 -1.715966	 -0.142953
C	 0.745235	 -0.373341	 -0.544575
H	 0.221215	 -2.372485	 -1.004791
H	 0.804896	 -2.120748	 0.637420
F	 0.509228	 0.509825	 0.414656
F	 2.054345	 -0.428591	 -0.726264
F	 0.204138	 0.080360	 -1.656222

11 8 7 9 F

3 5 7 9 F

6 3 5 7 F

