%nprocshared=24
%mem=2GB
#HF/6-31G* nosymm scf=tight 

Mol

0 1
H	 -2.455504	 -1.062989	 3.255514
C	 -2.425350	 -0.963885	 2.187839
C	 -1.271134	 -0.975404	 1.562018
H	 -3.351856	 -0.856911	 1.655811
O	 -0.624413	 -2.133182	 1.265096
H	 -0.780337	 -0.077073	 1.231390
C	 0.665642	 -2.054889	 0.763620
C	 0.690596	 -1.457947	 -0.625383
H	 1.151939	 -3.023197	 0.723738
H	 1.232861	 -1.405012	 1.413550
F	 -0.080213	 -0.380581	 -0.656073
F	 1.910657	 -1.088952	 -0.979115
F	 0.246394	 -2.300951	 -1.534458

11 8 7 9 F

3 5 7 9 F

6 3 5 7 F

