%nprocshared=1
%mem=2GB
#HF/6-31G* nosymm scf=tight 

Mol

0 1
H	 -2.646374	 -0.642757	 1.268656
C	 -2.083525	 -0.384536	 0.393091
O	 -0.807605	 -0.127164	 0.768327
F	 -2.118945	 -1.383102	 -0.486752
F	 -2.621877	 0.670592	 -0.209486
C	 -0.597284	 0.366782	 2.042874
C	 -1.329865	 -0.559220	 3.005166
Cl	 -1.206399	 2.023782	 2.186204
H	 0.444686	 0.377687	 2.311114
F	 -2.632006	 -0.441950	 2.854114
F	 -1.028287	 -0.212073	 4.240470
F	 -0.996310	 -1.815128	 2.833676

10 7 6 9 F

9 6 3 2 F

