%nprocshared=1
%mem=2GB
#HF/6-31G* nosymm scf=tight 

Mol

0 1
H	 2.332609	 0.878551	 -1.051851
C	 2.357710	 0.000000	 -0.417167
C	 1.175432	 0.000000	 0.532082
H	 3.291263	 0.000000	 0.136880
H	 2.332609	 -0.878551	 -1.051851
O	 0.000000	 0.000000	 -0.221444
H	 1.206604	 0.877321	 1.177902
H	 1.206604	 -0.877321	 1.177902
C	 -1.175432	 0.000000	 0.532082
C	 -0.996567	 0.942636	 1.706091
H	 -1.395044	 -1.007822	 0.883953
H	 -2.016139	 0.316691	 -0.084900
H	 -0.167272	 0.621017	 2.325878
H	 -1.894704	 0.967163	 2.315384
H	 -0.789238	 1.947387	 1.355667
