%nprocshared=1
%mem=2GB
#HF/6-31G* nosymm scf=tight 

Mol

0 1
H	 -3.135461	 -1.215070	 0.001379
O	 -2.310168	 -0.871793	 -0.309793
C	 -2.026376	 0.340750	 0.341611
C	 -0.673256	 0.843270	 -0.132153
H	 -2.792215	 1.080697	 0.115987
H	 -2.013526	 0.200402	 1.421792
C	 0.486613	 -0.083066	 0.235839
H	 -0.715586	 0.970948	 -1.210718
H	 -0.508072	 1.829858	 0.297090
C	 0.031984	 -1.342024	 0.976211
H	 1.197593	 0.462969	 0.847286
H	 1.015981	 -0.372292	 -0.671332
C	 -0.377482	 -1.066925	 2.422700
H	 -0.805023	 -1.789233	 0.444102
H	 0.831404	 -2.080386	 0.962298
H	 -1.199083	 -0.357856	 2.468338
H	 -0.697126	 -1.976649	 2.921875
H	 0.449078	 -0.650412	 2.991756

14 10 7 11 F

2 3 4 8 F

1 2 3 4 F

