%nprocshared=1
%mem=2GB
#HF/6-31G* nosymm scf=tight 

Mol

0 1
H	 -0.360334	 -2.521961	 4.359724
C	 0.091294	 -2.118512	 3.471843
C	 -0.319916	 -2.546584	 2.214113
C	 1.087553	 -1.168325	 3.561640
H	 -1.095272	 -3.286651	 2.124939
C	 0.256865	 -2.031533	 1.073393
H	 1.418385	 -0.825324	 4.525997
C	 1.679824	 -0.638565	 2.420137
H	 -0.051216	 -2.353281	 0.095948
C	 1.262478	 -1.072203	 1.171594
H	 2.452015	 0.098889	 2.522851
O	 1.765256	 -0.628444	 0.000000
C	 2.778419	 0.335181	 0.000000
H	 2.731280	 0.961222	 -0.884976
H	 3.711703	 -0.207767	 0.000000
H	 2.731280	 0.961222	 0.884976

13 12 10 8 F

