%nprocshared=1
%mem=2GB
#HF/6-31G* nosymm scf=tight 

Mol

0 1
O	 -1.487788	 1.240889	 -0.102860
C	 -1.083277	 0.139568	 0.115197
C	 0.323299	 -0.082943	 0.642902
C	 -1.933017	 -1.084621	 -0.143902
C	 1.355627	 -0.005344	 -0.493127
H	 0.396251	 -1.044647	 1.143147
H	 0.528637	 0.693580	 1.371677
C	 2.005604	 -1.357304	 -0.781191
H	 0.878885	 0.365719	 -1.397727
H	 2.115132	 0.719997	 -0.220781
H	 2.733661	 -1.275061	 -1.581728
H	 1.265984	 -2.094600	 -1.079825
H	 2.518857	 -1.738553	 0.096458
H	 -1.393885	 -1.806447	 -0.750509
H	 -2.850323	 -0.799888	 -0.640100
H	 -2.169004	 -1.571158	 0.798858

4 2 3 5 F

