%nprocshared=1
%mem=2GB
#HF/6-31G* nosymm scf=tight 

Mol

0 1
H	 1.164198	 0.449276	 -1.897274
O	 1.295517	 1.096405	 -1.217691
C	 0.709265	 0.639550	 -0.033818
C	 -0.795902	 0.595680	 -0.067389
H	 1.036488	 1.316995	 0.746692
H	 1.089459	 -0.346569	 0.230846
C	 -1.522220	 -0.487727	 -0.255690
H	 -1.282245	 1.548446	 0.074703
H	 -1.071454	 -1.449856	 -0.418625
H	 -2.596511	 -0.445958	 -0.267127

5 3 2 1 F

3 4 7 9 F

