%nprocshared=1
%mem=2GB
#HF/6-31G* nosymm scf=tight 

Mol

0 1
O	 1.821245	 1.341205	 -0.214570
C	 1.631557	 0.245308	 -0.634269
C	 0.309946	 -0.483430	 -0.621979
O	 2.583982	 -0.495851	 -1.186271
C	 -0.823008	 0.326187	 0.001381
H	 0.080281	 -0.756611	 -1.648303
H	 0.461000	 -1.420846	 -0.093630
C	 -2.149452	 -0.435131	 -0.000098
H	 -0.933600	 1.261149	 -0.538808
H	 -0.553073	 0.595290	 1.017761
C	 -3.368779	 0.488503	 -0.000883
H	 -2.193746	 -1.087250	 -0.871175
H	 -2.195311	 -1.087803	 0.870418
C	 -3.346354	 1.505125	 -1.141597
H	 -3.422266	 1.013619	 0.950187
H	 -4.273627	 -0.111280	 -0.069069
H	 -2.469560	 2.143689	 -1.080920
H	 -4.223185	 2.144600	 -1.115337
H	 -3.327221	 1.009791	 -2.108339
C	 3.878243	 0.073393	 -1.262462
H	 3.861512	 0.977571	 -1.853824
H	 4.500608	 -0.670740	 -1.734482
H	 4.251656	 0.302031	 -0.274639

15 11 8 12 F

1 2 3 6 F

9 5 3 6 F

1 2 4 20 F

