%nprocshared=1
%mem=2GB
#HF/6-31G* nosymm scf=tight 

Mol

0 1
O	 0.365866	 0.817481	 -0.865064
C	 0.028650	 0.075053	 -0.000277
C	 -1.233602	 -0.752807	 0.000328
O	 0.736417	 -0.125482	 1.103694
C	 -2.501530	 0.091881	 0.000126
H	 -1.193807	 -1.406641	 -0.865785
H	 -1.193516	 -1.405779	 0.867015
H	 -2.545121	 0.729328	 -0.874513
H	 -3.377167	 -0.548497	 0.000561
H	 -2.544818	 0.730135	 0.874258
C	 1.949045	 0.595162	 1.229371
H	 2.624740	 0.344804	 0.424281
H	 2.370906	 0.299704	 2.177317
H	 1.761564	 1.659208	 1.218058

11 4 2 3 F

