%nprocshared=1
%mem=2GB
#HF/6-31G* nosymm scf=tight 

Mol

0 1
O	 -0.682937	 1.318834	 -0.186099
C	 -0.860635	 0.152188	 -0.042321
C	 -2.173363	 -0.477127	 0.338347
O	 0.083258	 -0.765189	 -0.202595
H	 -2.477673	 -1.180929	 -0.427595
H	 -2.923125	 0.290956	 0.455536
H	 -2.058825	 -1.029004	 1.264191
C	 -0.263307	 -1.989660	 -0.845527
C	 -1.233161	 -2.802696	 -0.008268
H	 0.636723	 -2.547303	 -1.055575
H	 -0.716530	 -1.687003	 -1.778526
H	 -1.536410	 -3.689920	 -0.555630
H	 -0.772363	 -3.116777	 0.919841
H	 -2.120889	 -2.222213	 0.218433

10 8 4 2 F

