%nprocshared=1
%mem=2GB
#HF/6-31G* nosymm scf=tight 

Mol

0 1
O	 0.888560	 1.036733	 0.704466
C	 0.576249	 0.131685	 -0.000108
C	 -0.766779	 -0.556801	 -0.000461
O	 1.391071	 -0.402883	 -0.900645
C	 -1.945214	 0.412366	 0.000161
H	 -0.796911	 -1.211249	 -0.867467
H	 -0.796854	 -1.212390	 0.865687
C	 -1.851003	 1.430701	 -1.135043
H	 -1.986407	 0.925269	 0.955062
H	 -2.870006	 -0.148553	 -0.081713
H	 -0.946584	 2.027704	 -1.057156
H	 -2.696928	 2.110022	 -1.116727
H	 -1.841119	 0.942075	 -2.105414
C	 1.870611	 -1.709178	 -0.638267
H	 2.434652	 -1.728916	 0.283150
H	 2.506896	 -1.962781	 -1.471750
H	 1.049769	 -2.408248	 -0.567366

1 2 3 6 F

9 5 3 6 F

