%nprocshared=1
%mem=2GB
#HF/6-31G* nosymm scf=tight 

Mol

0 1
O	 -0.488453	 0.057968	 1.132425
C	 -0.451170	 -1.129930	 1.097049
C	 0.801727	 -1.959116	 0.945507
O	 -1.528589	 -1.897310	 1.185968
C	 1.124911	 -2.785238	 2.184071
H	 1.613075	 -1.280220	 0.700432
H	 0.669725	 -2.590969	 0.072237
H	 1.272053	 -2.149836	 3.048928
H	 2.030738	 -3.360307	 2.024106
H	 0.320287	 -3.472711	 2.414906
C	 -2.799040	 -1.258484	 1.113471
C	 -2.967094	 -0.438053	 2.374804
H	 -3.568330	 -2.013075	 1.021996
H	 -2.832723	 -0.640148	 0.226838
H	 -2.925573	 -1.071034	 3.253878
H	 -3.926880	 0.068179	 2.361084
H	 -2.186011	 0.309492	 2.454437

2 4 11 13 F

4 2 3 6 F

