%nprocshared=1
%mem=2GB
#HF/6-31G* nosymm scf=tight 

Mol

0 1
O	 -0.644987	 -1.652990	 1.664992
C	 -1.514987	 -1.440192	 0.882411
C	 -2.775474	 -2.260464	 0.784449
O	 -1.481751	 -0.454642	 0.000584
H	 -3.283566	 -2.233162	 1.740984
H	 -3.433286	 -1.897333	 0.008654
H	 -2.505502	 -3.290827	 0.586090
C	 -0.334255	 0.388708	 0.000906
C	 0.891947	 -0.504646	 0.000751
H	 -0.365390	 1.025305	 -0.873475
H	 -0.365484	 1.024911	 0.875569
C	 0.838286	 -1.556101	 -1.109219
H	 0.972990	 -0.989855	 0.969484
H	 1.777328	 0.114301	 -0.115286
C	 2.221579	 -2.075743	 -1.505197
H	 0.220228	 -2.392778	 -0.788185
H	 0.349865	 -1.134753	 -1.986141
C	 2.167822	 -3.126912	 -2.612906
H	 2.710928	 -2.497469	 -0.630121
H	 2.839798	 -1.241254	 -1.828467
H	 1.583782	 -3.990079	 -2.306549
H	 3.162665	 -3.475789	 -2.871380
H	 1.713946	 -2.724344	 -3.513986

13 9 8 10 F

2 4 8 10 F

19 15 12 16 F

1 2 4 8 F

