%nprocshared=1
%mem=2GB
#HF/6-31G* nosymm scf=tight opt=ModRedundant

Mol

0 1
O	 0.633000	 1.378000	 -0.000000
C	 0.493000	 0.197000	 -0.000000
C	 1.615000	 -0.814000	 -0.000000
O	 -0.691000	 -0.398000	 -0.000000
C	 2.998000	 -0.172000	 0.000000
H	 1.477000	 -1.453000	 -0.867000
H	 1.476000	 -1.454000	 0.866000
H	 3.138000	 0.452000	 -0.874000
H	 3.765000	 -0.939000	 0.000000
H	 3.137000	 0.451000	 0.875000
C	 -1.846000	 0.435000	 -0.000000
C	 -3.059000	 -0.471000	 0.000000
H	 -1.822000	 1.071000	 -0.874000
H	 -1.822000	 1.071000	 0.874000
H	 -3.066000	 -1.106000	 -0.879000
H	 -3.966000	 0.125000	 0.000000
H	 -3.065000	 -1.105000	 0.879000
