%nprocshared=1
%mem=2GB
#HF/6-31G* nosymm scf=tight 

Mol

0 1
H	 -2.270452	 0.191908	 3.181756
C	 -2.135482	 -0.370630	 2.260086
O	 -0.800307	 -0.395982	 1.870212
H	 -2.446437	 -1.392963	 2.425264
H	 -2.769147	 0.069619	 1.491271
C	 -0.257408	 0.860352	 1.613046
C	 1.215020	 0.715177	 1.307946
H	 -0.756693	 1.320467	 0.759404
H	 -0.382768	 1.519011	 2.470051
O	 1.392611	 -0.295398	 0.366430
H	 1.599227	 1.662768	 0.935841
H	 1.749486	 0.473401	 2.227503
C	 2.706965	 -0.449871	 -0.062409
H	 2.756559	 -0.644779	 -1.131878
H	 3.305899	 0.433456	 0.155466
H	 3.125548	 -1.294566	 0.467107

3 6 7 11 F

2 3 6 7 F

