%nprocshared=1
%mem=2GB
#HF/6-31G* nosymm scf=tight 

Mol

0 1
H	 -2.866401	 0.112938	 -2.260275
C	 -1.904399	 -0.020225	 -1.799958
C	 -1.592638	 -1.208434	 -1.147895
C	 -0.959757	 0.984233	 -1.846512
H	 -2.316735	 -2.002396	 -1.101663
C	 -0.360145	 -1.382803	 -0.556495
H	 -1.183259	 1.910066	 -2.346478
C	 0.288675	 0.824101	 -1.254707
H	 -0.106370	 -2.295292	 -0.049744
C	 0.589019	 -0.364123	 -0.607406
H	 1.001824	 1.623632	 -1.307958
O	 1.765256	 -0.628444	 0.000000
C	 2.778419	 0.335181	 0.000000
H	 2.731280	 0.961222	 -0.884976
H	 3.711703	 -0.207767	 0.000000
H	 2.731280	 0.961222	 0.884976

13 12 10 8 F

