%nprocshared=24
%mem=2GB
#HF/6-31G* nosymm scf=tight 

Mol

0 1
H	 -2.455504	 -1.062989	 3.255514
C	 -2.425350	 -0.963885	 2.187839
C	 -1.271134	 -0.975404	 1.562018
H	 -3.351856	 -0.856911	 1.655811
O	 -0.980639	 -1.894153	 0.603700
H	 -0.498554	 -0.251981	 1.754307
C	 0.316657	 -1.948873	 0.118028
C	 0.666083	 -0.715773	 -0.684255
H	 0.486317	 -2.818027	 -0.507658
H	 0.984276	 -1.992437	 0.965892
F	 0.267568	 0.364413	 -0.028366
F	 1.970329	 -0.609564	 -0.877885
F	 0.082983	 -0.711892	 -1.865089

11 8 7 9 F

3 5 7 9 F

6 3 5 7 F

