%nprocshared=1
%mem=2GB
#HF/6-31G* nosymm scf=tight 

Mol

0 1
H	 -1.886206	 1.845660	 -1.027301
C	 -1.201332	 2.258809	 -0.296821
C	 0.128618	 1.514662	 -0.312259
H	 -1.676023	 2.185849	 0.674069
H	 -1.049050	 3.308460	 -0.525556
C	 -0.000005	 0.033229	 -0.000001
H	 0.822275	 1.949131	 0.405007
H	 0.614002	 1.611968	 -1.281449
C	 1.290528	 -0.768786	 0.000276
O	 -1.055461	 -0.472039	 0.232164
C	 2.545731	 0.095645	 -0.000061
H	 1.275672	 -1.427874	 -0.865626
H	 1.275566	 -1.427086	 0.866768
H	 2.577157	 0.734767	 -0.874036
H	 3.433520	 -0.528139	 0.000137
H	 2.577172	 0.735117	 0.873581
