%nprocshared=1
%mem=2GB
#HF/6-31G* nosymm scf=tight 

Mol

0 1
O	 0.324767	 -3.694480	 -4.391603
C	 1.408622	 -3.742366	 -3.894209
C	 1.619021	 -3.337285	 -2.445780
C	 2.613948	 -4.235545	 -4.663194
C	 1.457141	 -1.818446	 -2.272388
H	 2.625662	 -3.628173	 -2.165849
H	 0.922728	 -3.861359	 -1.797283
C	 0.149006	 -1.302371	 -2.876593
H	 1.503884	 -1.592174	 -1.213142
H	 2.295252	 -1.304797	 -2.740877
C	 0.075323	 -1.399736	 -4.404711
H	 -0.000717	 -0.267296	 -2.575051
H	 -0.679478	 -1.866326	 -2.453016
C	 -1.053427	 -2.288511	 -4.930067
H	 1.023541	 -1.787350	 -4.768483
H	 -0.024340	 -0.400645	 -4.824201
H	 -0.984148	 -3.291584	 -4.518035
H	 -1.004790	 -2.372263	 -6.011279
H	 -2.032469	 -1.894716	 -4.678683
H	 3.317564	 -3.418966	 -4.802433
H	 2.307811	 -4.614091	 -5.628475
H	 3.131706	 -5.013142	 -4.109052

6 3 2 1 F

6 3 5 8 F

3 5 8 12 F

