%nprocshared=1
%mem=2GB
#HF/6-31G* nosymm scf=tight 

Mol

0 1
H	 -2.153054	 -2.250733	 0.000000
O	 -2.462445	 -1.355403	 0.000000
C	 -1.434260	 -0.483044	 0.000000
C	 -1.461763	 0.535525	 0.946821
C	 -0.381702	 -0.570767	 -0.891257
H	 -2.289621	 0.583746	 1.628933
C	 -0.437395	 1.458442	 0.995707
H	 -0.348231	 -1.353306	 -1.628189
C	 0.644675	 0.368442	 -0.829114
H	 -0.466067	 2.242274	 1.730114
C	 0.627963	 1.386647	 0.109055
C	 1.742330	 0.269843	 -1.765025
H	 1.426141	 2.103043	 0.144665
N	 2.603790	 0.190263	 -2.501543

14 12 9 5 F

