%nprocshared=1
%mem=2GB
#HF/6-31G* nosymm scf=tight 

Mol

0 1
H	 -1.378970	 -1.215483	 0.348840
N	 -0.626943	 -0.667432	 -0.000092
C	 -0.607600	 -0.352385	 -1.410443
C	 0.325755	 -0.252874	 0.869779
H	 -1.358860	 -0.922943	 -1.946239
H	 0.365871	 -0.604213	 -1.798598
H	 -0.789892	 0.704300	 -1.575420
C	 1.674978	 -0.919497	 0.690344
O	 0.127974	 0.574320	 1.716447
H	 2.068026	 -0.726742	 -0.302990
H	 2.359261	 -0.526889	 1.427442
H	 1.590945	 -1.994555	 0.814939

4 2 3 5 F

