%nprocshared=1
%mem=2GB
#HF/6-31G* nosymm scf=tight 

Mol

0 1
O	 -0.176724	 1.037571	 -1.126777
C	 -0.388427	 -0.006171	 -0.600317
C	 -1.729130	 -0.684246	 -0.527537
O	 0.550821	 -0.724572	 0.000672
H	 -1.671622	 -1.660182	 -0.995433
H	 -2.469367	 -0.077058	 -1.026798
H	 -2.007995	 -0.832953	 0.509141
C	 1.863949	 -0.193559	 -0.000319
H	 2.028859	 0.409284	 -0.881648
H	 2.526261	 -1.045082	 -0.000003
H	 2.029520	 0.410555	 0.880008

8 4 2 1 F

