%nprocshared=1
%mem=2GB
#HF/6-31G* nosymm scf=tight 

Mol

0 1
O	 -2.042549	 -1.228399	 -0.269030
C	 -1.653912	 -0.146171	 0.050137
C	 -0.332303	 0.024011	 0.778412
C	 -2.438579	 1.106236	 -0.272369
C	 0.321368	 1.368742	 0.423043
H	 -0.477777	 -0.043935	 1.852937
H	 0.318609	 -0.787678	 0.472804
C	 0.791022	 1.429126	 -1.031196
H	 1.169013	 1.551213	 1.081286
H	 -0.395324	 2.162482	 0.611374
C	 -0.272904	 0.947030	 -2.016514
H	 1.076221	 2.449742	 -1.277021
H	 1.688117	 0.824689	 -1.142750
H	 -1.171361	 1.554280	 -1.952673
H	 -0.554811	 -0.082362	 -1.815708
H	 0.088557	 0.998030	 -3.038655
H	 -3.277823	 0.863061	 -0.908988
H	 -1.806773	 1.843019	 -0.759671
H	 -2.802853	 1.554979	 0.648059

11 8 5 9 F

9 5 3 2 F

