%nprocshared=1
%mem=2GB
#HF/6-31G* nosymm scf=tight 

Mol

0 1
H	 -1.646793	 -2.248543	 0.367061
N	 -1.151408	 -1.390628	 0.513858
C	 -1.739336	 -0.316598	 -0.267107
H	 -0.205289	 -1.538083	 0.220217
C	 -1.468510	 -0.540334	 -1.740108
H	 -2.816099	 -0.211085	 -0.127648
H	 -1.279062	 0.620695	 0.030233
O	 -0.088814	 -0.446451	 -1.951562
H	 -1.827773	 -1.523291	 -2.044024
H	 -1.992104	 0.211464	 -2.326524
C	 0.295968	 -0.548357	 -3.285402
H	 1.077210	 -1.293847	 -3.345427
H	 -0.534823	 -0.858547	 -3.916710
H	 0.680852	 0.397273	 -3.661511

8 5 3 6 F

6 3 2 4 F

11 8 5 3 F

