%nprocshared=1
%mem=2GB
#HF/6-31G* nosymm scf=tight 

Mol

0 1
O	 -0.806752	 -1.114546	 1.082146
C	 -0.561929	 -0.074560	 0.531515
C	 -1.597472	 1.034011	 0.503089
N	 0.623947	 0.147590	 -0.102813
H	 -1.868528	 1.298769	 -0.513038
H	 -2.472791	 0.671041	 1.019920
H	 -1.237628	 1.928840	 0.999450
C	 0.743591	 -0.219463	 -1.500251
C	 1.873799	 0.397973	 0.580871
H	 1.670505	 0.177087	 -1.899746
H	 -0.086159	 0.188861	 -2.050457
H	 0.751040	 -1.300035	 -1.625668
H	 2.488735	 1.046876	 -0.031352
H	 1.717160	 0.893488	 1.525785
H	 2.430108	 -0.520352	 0.759794

2 4 8 10 F

