%nprocshared=1
%mem=2GB
#HF/6-31G* nosymm scf=tight 

Mol

0 1
H	 -2.655347	 0.009537	 0.052973
C	 -1.668525	 -0.438574	 0.054828
C	 -0.603454	 0.661669	 0.000000
H	 -1.590315	 -1.097310	 -0.801554
H	 -1.565018	 -1.034334	 0.953604
C	 0.763625	 0.112519	 0.000000
H	 -0.719923	 1.264234	 -0.893264
H	 -0.694786	 1.326811	 0.850773
N	 1.813038	 -0.320305	 0.000000
