%nprocshared=1
%mem=2GB
#HF/6-31G* nosymm scf=tight 

Mol

0 1
H	 0.075655	 1.724700	 0.560390
N	 -0.456516	 0.876527	 0.541107
C	 0.411825	 -0.271767	 0.350028
H	 -1.096509	 0.942907	 -0.226429
C	 0.971803	 -0.268062	 -1.056935
H	 1.245876	 -0.313000	 1.051925
H	 -0.173567	 -1.175924	 0.486406
O	 -0.088814	 -0.446451	 -1.951562
H	 1.476952	 0.676258	 -1.258733
H	 1.695616	 -1.072886	 -1.164576
C	 -1.248595	 0.244504	 -1.612355
H	 -0.974365	 1.273807	 -1.425192
H	 -1.978830	 0.216669	 -2.419178
H	 -1.708640	 -0.166708	 -0.716212

8 5 3 6 F

6 3 2 4 F

5 8 11 13 F

