%nprocshared=1
%mem=2GB
#HF/6-31G* nosymm scf=tight 

Mol

0 1
H	 -2.577606	 0.247184	 1.509904
O	 -1.840915	 -0.185680	 1.103718
C	 -2.061112	 -1.573124	 1.079922
C	 -1.760172	 -2.252454	 2.411340
H	 -3.107143	 -1.700900	 0.832603
H	 -1.481573	 -2.037312	 0.282775
C	 -2.373279	 -1.546163	 3.623001
H	 -2.120591	 -3.276818	 2.365039
H	 -0.679046	 -2.301569	 2.530174
C	 -1.732660	 -0.183111	 3.899614
H	 -2.267044	 -2.181276	 4.498050
H	 -3.442858	 -1.411795	 3.460871
C	 -1.566991	 0.712657	 2.666530
H	 -2.320018	 0.342801	 4.650130
H	 -0.751835	 -0.345025	 4.341730
C	 -0.564807	 0.200898	 1.628163
H	 -2.538401	 0.818393	 2.187993
H	 -1.277260	 1.712831	 2.985191
C	 0.881468	 0.238548	 2.126466
H	 -0.647628	 0.800983	 0.723094
H	 -0.810819	 -0.818656	 1.341299
C	 1.050509	 -0.370024	 3.518130
H	 1.518886	 -0.290924	 1.421594
H	 1.231147	 1.268822	 2.138552
H	 0.739630	 -1.410892	 3.531259
H	 2.085913	 -0.330271	 3.842158
H	 0.453403	 0.161291	 4.254019

14 10 7 4 F

14 10 13 16 F

10 7 4 8 F

8 4 3 2 F

10 13 16 20 F

20 16 19 22 F

