%nprocshared=1
%mem=2GB
#HF/6-31G* nosymm scf=tight 

Mol

0 1
O	 -0.806752	 -1.114546	 1.082146
C	 -0.561929	 -0.074560	 0.531515
C	 -1.597472	 1.034011	 0.503089
N	 0.623947	 0.147590	 -0.102813
H	 -1.868528	 1.298769	 -0.513038
H	 -2.472791	 0.671041	 1.019920
H	 -1.237628	 1.928840	 0.999450
C	 0.600785	 0.638579	 -1.466730
C	 1.892774	 -0.385914	 0.341817
H	 1.602739	 0.928792	 -1.763178
H	 -0.051608	 1.492034	 -1.529476
H	 0.247477	 -0.125523	 -2.155747
H	 2.682217	 0.304890	 0.070508
H	 1.919191	 -0.506768	 1.413092
H	 2.114078	 -1.346283	 -0.120275

2 4 8 10 F

