%nprocshared=1
%mem=2GB
#HF/6-31G* nosymm scf=tight 

Mol

0 1
H	 2.591676	 2.013956	 0.335017
O	 3.341076	 1.666752	 -0.126416
C	 3.569581	 0.339145	 0.272707
C	 2.539767	 -0.640285	 -0.279495
H	 4.553106	 0.084646	 -0.100901
H	 3.608576	 0.269204	 1.359154
C	 1.115811	 -0.397273	 0.226630
H	 2.556196	 -0.582511	 -1.364741
H	 2.852081	 -1.648031	 -0.010655
C	 0.115918	 -1.429151	 -0.302766
H	 0.797950	 0.599468	 -0.066350
H	 1.109961	 -0.420744	 1.316472
C	 0.536300	 -2.125310	 -1.602375
H	 -0.064766	 -2.179239	 0.465068
H	 -0.837399	 -0.932601	 -0.471065
C	 1.764100	 -3.031931	 -1.479807
H	 -0.301469	 -2.722349	 -1.956641
H	 0.717499	 -1.374425	 -2.369952
C	 2.080731	 -3.784817	 -2.773772
H	 1.601085	 -3.750594	 -0.677897
H	 2.634260	 -2.446746	 -1.192261
C	 3.309682	 -4.685643	 -2.656067
H	 1.219969	 -4.384982	 -3.060792
H	 2.234353	 -3.068631	 -3.578361
H	 3.174041	 -5.434524	 -1.880824
H	 3.506718	 -5.206619	 -3.587945
H	 4.196131	 -4.109479	 -2.405852

14 10 13 16 F

10 7 4 8 F

8 4 3 2 F

10 13 16 20 F

20 16 19 22 F

4 3 2 1 F

