%nprocshared=1
%mem=2GB
#HF/6-31G* nosymm scf=tight 

Mol

0 1
O	 2.793771	 1.463309	 0.317791
C	 2.624645	 0.502964	 1.004734
C	 1.333612	 -0.295395	 0.976532
C	 3.697201	 0.015311	 1.957086
C	 0.291004	 0.242674	 0.000989
H	 1.585678	 -1.328215	 0.739607
H	 0.935465	 -0.321095	 1.990051
C	 -0.994322	 -0.586602	 0.000262
H	 0.716296	 0.265444	 -0.997379
H	 0.065137	 1.273613	 0.254558
C	 -2.259874	 0.272531	 0.000494
H	 -1.004862	 -1.240012	 -0.870939
H	 -1.005220	 -1.241071	 0.870675
C	 -3.549786	 -0.549746	 -0.000374
H	 -2.250389	 0.926680	 -0.869574
H	 -2.250838	 0.925513	 0.871430
C	 -4.809590	 0.315458	 -0.000369
H	 -3.560515	 -1.202009	 -0.871156
H	 -3.561123	 -1.202955	 0.869711
H	 -4.844746	 0.956611	 -0.876632
H	 -5.706986	 -0.295590	 -0.001609
H	 -4.845960	 0.954827	 0.877144
H	 3.981117	 -1.005312	 1.717632
H	 4.564774	 0.656788	 1.888815
H	 3.325820	 0.015358	 2.977728

15 11 8 12 F

15 11 14 18 F

1 2 3 6 F

9 5 3 6 F

