%nprocshared=1
%mem=2GB
#HF/6-31G* nosymm scf=tight 

Mol

0 1
H	 -2.603399	 0.189249	 1.472780
O	 -1.852861	 -0.193472	 1.042329
C	 -2.098667	 -1.551841	 0.780666
C	 -3.096750	 -1.775172	 -0.350121
H	 -1.140557	 -1.977865	 0.511958
H	 -2.435873	 -2.058961	 1.683939
C	 -2.814984	 -0.941647	 -1.602603
H	 -3.096318	 -2.831318	 -0.606873
H	 -4.091646	 -1.540123	 0.024448
C	 -3.038543	 0.556557	 -1.378492
H	 -3.452486	 -1.286544	 -2.411926
H	 -1.785775	 -1.105256	 -1.922447
C	 -2.412015	 1.116360	 -0.096141
H	 -2.656559	 1.107703	 -2.235915
H	 -4.109487	 0.746133	 -1.349530
C	 -3.034785	 0.600176	 1.203932
H	 -1.352974	 0.866865	 -0.096134
H	 -2.465711	 2.203834	 -0.114966
C	 -4.465221	 1.099239	 1.418936
H	 -2.416982	 0.909888	 2.045662
H	 -3.037454	 -0.487130	 1.211759
C	 -5.411106	 0.710962	 0.283063
H	 -4.847259	 0.703375	 2.357459
H	 -4.456195	 2.181939	 1.526468
H	 -5.467273	 -0.368187	 0.171231
H	 -6.416738	 1.077069	 0.465559
H	 -5.076338	 1.123259	 -0.664726

14 10 7 4 F

14 10 13 16 F

10 7 4 8 F

8 4 3 2 F

10 13 16 20 F

4 3 2 1 F

