%nprocshared=1
%mem=2GB
#HF/6-31G* nosymm scf=tight 

Mol

0 1
H	 -2.416967	 -0.214064	 -0.793166
C	 -1.888473	 0.557717	 -0.243267
N	 -0.528168	 0.128977	 -0.000000
H	 -2.400510	 0.699141	 0.701642
H	 -1.964002	 1.485457	 -0.816730
C	 0.248044	 -0.037491	 -1.209632
H	 -0.071977	 0.779828	 0.607710
H	 0.998722	 0.743888	 -1.266824
H	 -0.398417	 0.061950	 -2.074060
H	 0.763621	 -0.999315	 -1.275517
