%nprocshared=1
%mem=2GB
#HF/6-31G* nosymm scf=tight 

Mol

0 1
H	 -1.836216	 1.387520	 -0.000064
C	 -1.301823	 0.443321	 -0.000031
O	 -0.003969	 0.658512	 0.000451
O	 -1.829879	 -0.616434	 -0.000857
C	 0.850537	 -0.484732	 0.000380
C	 0.896553	 -1.017204	 1.416246
H	 1.829796	 -0.187950	 -0.349318
H	 0.455347	 -1.215843	 -0.691427
H	 1.287310	 -0.268951	 2.096291
H	 1.538900	 -1.890521	 1.460290
H	 -0.093734	 -1.301866	 1.752680

5 3 2 4 F

