%nprocshared=1
%mem=2GB
#HF/6-31G* nosymm scf=tight 

Mol

0 1
H	 -2.273221	 1.218144	 -0.078506
N	 -1.704923	 0.447054	 0.213782
C	 -0.294842	 0.762146	 0.067179
H	 -1.935677	 -0.332574	 -0.371062
C	 0.069880	 0.829786	 -1.400996
H	 -0.004014	 1.702539	 0.537372
H	 0.287312	 -0.027884	 0.531648
O	 -0.088814	 -0.446451	 -1.951562
H	 -0.573551	 1.542496	 -1.916438
H	 1.100609	 1.160873	 -1.506883
C	 0.295968	 -0.548357	 -3.285402
H	 1.077210	 -1.293847	 -3.345427
H	 -0.534823	 -0.858547	 -3.916710
H	 0.680852	 0.397273	 -3.661511

8 5 3 6 F

6 3 2 4 F

11 8 5 3 F

