%nprocshared=1
%mem=2GB
#HF/6-31G* nosymm scf=tight 

Mol

0 1
H	 0.815950	 2.623214	 -0.383852
C	 0.557503	 1.679937	 -0.867300
N	 0.538815	 0.649616	 0.000000
O	 0.324383	 1.612353	 -2.037897
C	 1.521968	 -0.411503	 0.000000
H	 -0.192644	 0.624219	 0.672761
H	 2.150599	 -0.357004	 -0.881901
H	 0.999455	 -1.354525	 0.000000
H	 2.150599	 -0.357004	 0.881901

6 3 5 7 F

