%nprocshared=1
%mem=2GB
#HF/6-31G* nosymm scf=tight 

Mol

0 1
H	 -2.798360	 -0.862255	 -0.071053
N	 -1.863561	 -0.715187	 0.256814
C	 -1.344686	 0.554728	 -0.219830
H	 -1.300452	 -1.461917	 -0.101532
C	 0.081427	 0.741154	 0.254071
H	 -1.362155	 0.656231	 -1.305829
H	 -1.952773	 1.354456	 0.191809
O	 0.706766	 -0.510204	 0.265899
H	 0.614022	 1.419509	 -0.412124
H	 0.081523	 1.172438	 1.252684
C	 2.005967	 -0.498226	 0.765403
H	 2.382686	 -1.511177	 0.724044
H	 2.654989	 0.142468	 0.171045
H	 2.032067	 -0.153832	 1.797159

6 3 2 4 F

5 8 11 13 F

11 8 5 3 F

