%nprocshared=1
%mem=2GB
#HF/6-31G* nosymm scf=tight 
prop=(read,field)

Mol

0 1
H	 -2.494587	 -2.320187	 -0.001626
C	 -1.939773	 -1.400645	 -0.001012
C	 -2.589742	 -0.178153	 -0.000448
C	 -0.561625	 -1.426273	 -0.000686
H	 -3.664105	 -0.137093	 -0.000582
C	 -1.862804	 0.997555	 0.000367
H	 -0.029286	 -2.354385	 -0.000933
C	 0.155203	 -0.237107	 -0.000077
H	 -2.385750	 1.935970	 0.000987
C	 -0.469493	 1.014605	 0.000441
N	 1.611607	 -0.370918	 -0.000034
C	 0.223379	 2.359543	 0.001506
O	 2.274525	 0.621998	 -0.008063
O	 2.068909	 -1.474809	 0.007823
H	 0.851637	 2.483700	 -0.869703
H	 -0.523919	 3.143065	 0.005335
H	 0.856482	 2.479909	 0.869732

@grid.dat /N
