%nprocshared=1
%mem=2GB
#HF/6-31G* nosymm scf=tight 

Mol

0 1
O	 1.825465	 1.324323	 -0.951462
C	 0.788116	 1.716284	 -1.379704
C	 -0.516134	 0.957269	 -1.353318
O	 0.640172	 2.906476	 -1.947763
C	 -0.823008	 0.326187	 0.001381
H	 -1.299814	 1.647936	 -1.652547
H	 -0.470175	 0.205508	 -2.136556
C	 0.339956	 0.467889	 0.984486
H	 -1.061755	 -0.723337	 -0.138928
H	 -1.714860	 0.785472	 0.416069
C	 1.511644	 -0.461182	 0.662252
H	 0.690760	 1.498872	 0.986975
H	 -0.011018	 0.264172	 1.995029
C	 2.016160	 -0.309594	 -0.772229
H	 1.209738	 -1.492272	 0.832095
H	 2.326998	 -0.264427	 1.354800
H	 1.231898	 -0.533849	 -1.489765
H	 2.846336	 -0.980592	 -0.969767
H	 2.357634	 0.703962	 -0.963042
C	 1.792514	 3.724689	 -2.034891
H	 2.180449	 3.940881	 -1.049855
H	 1.472688	 4.634305	 -2.518819
H	 2.560106	 3.239076	 -2.620117

15 11 8 12 F

9 5 8 12 F

1 2 3 6 F

1 2 4 20 F

