%nprocshared=1
%mem=2GB
#HF/6-31G* nosymm scf=tight 

Mol

0 1
H	 3.296744	 -0.447908	 0.013499
C	 2.237514	 -0.262315	 0.010597
C	 1.719348	 0.766489	 -0.766531
C	 1.398538	 -1.049907	 0.781179
H	 2.377042	 1.373459	 -1.361974
C	 0.359528	 1.007559	 -0.772580
H	 1.802988	 -1.844793	 1.381030
C	 0.034522	 -0.807048	 0.774247
H	 -0.060792	 1.797588	 -1.366159
C	 -0.488460	 0.219100	 0.000000
H	 -0.622767	 -1.415845	 1.371143
C	 -1.949954	 0.470334	 0.000000
O	 -2.781584	 -0.381627	 0.000000
H	 -2.238022	 1.526388	 0.000000
