%nprocshared=1
%mem=2GB
#HF/6-31G* nosymm scf=tight 

Mol

0 1
H	 -1.384106	 -1.445559	 4.065043
C	 -0.723981	 -1.261325	 3.237175
C	 -0.839845	 -1.999927	 2.064457
C	 0.251191	 -0.288967	 3.320903
H	 -1.594261	 -2.762010	 1.981311
C	 0.004806	 -1.766515	 1.000840
H	 0.355568	 0.292131	 4.220078
C	 1.111515	 -0.041040	 2.256556
H	 -0.073748	 -2.329591	 0.089463
C	 0.987358	 -0.782940	 1.092404
H	 1.859586	 0.721773	 2.352327
O	 1.765256	 -0.628444	 0.000000
C	 2.778419	 0.335181	 0.000000
H	 2.731280	 0.961222	 -0.884976
H	 3.711703	 -0.207767	 0.000000
H	 2.731280	 0.961222	 0.884976

13 12 10 8 F

