%nprocshared=1
%mem=2GB
#HF/6-31G* nosymm scf=tight 

Mol

0 1
O	 3.225979	 0.970355	 -0.599647
C	 2.701189	 0.057885	 -0.047330
C	 1.245376	 -0.013843	 0.345420
O	 3.347903	 -1.046386	 0.304773
C	 0.455112	 1.231400	 -0.050772
H	 0.838542	 -0.913825	 -0.103701
H	 1.208210	 -0.175333	 1.419774
C	 -0.998893	 1.219485	 0.433193
H	 0.482531	 1.345121	 -1.130325
H	 0.957290	 2.103070	 0.354729
C	 -1.883438	 0.145884	 -0.207175
H	 -1.431207	 2.195402	 0.224832
H	 -1.019646	 1.105716	 1.516076
C	 -2.609510	 0.642231	 -1.459157
H	 -1.269815	 -0.715872	 -0.465367
H	 -2.621193	 -0.208092	 0.509338
C	 -3.680501	 1.693348	 -1.162068
H	 -3.068768	 -0.203684	 -1.967826
H	 -1.883052	 1.057740	 -2.155800
C	 -3.184997	 2.807203	 -0.240382
H	 -4.028110	 2.127156	 -2.097280
H	 -4.544416	 1.209831	 -0.710800
H	 -3.966199	 3.536259	 -0.048532
H	 -2.342175	 3.333514	 -0.679520
H	 -2.861913	 2.408952	 0.717369
C	 4.728119	 -1.109107	 -0.004993
H	 4.882018	 -1.033965	 -1.071845
H	 5.068212	 -2.067527	 0.355250
H	 5.265056	 -0.311663	 0.488280

21 17 14 11 F

17 14 11 15 F

6 3 5 9 F

11 8 5 9 F

2 4 26 27 F

1 2 4 26 F

6 3 2 1 F

