%nprocshared=1
%mem=2GB
#HF/6-31G* nosymm scf=tight 

Mol

0 1
H	 -3.571158	 0.540474	 0.139285
O	 -3.106200	 -0.271124	 -0.011510
C	 -1.775819	 -0.076055	 -0.001477
C	 -0.898609	 -0.978259	 0.593106
C	 -1.294613	 1.074406	 -0.613807
H	 -1.279828	 -1.867510	 1.065563
C	 0.457070	 -0.726174	 0.572925
H	 -1.991160	 1.754917	 -1.065467
C	 0.063903	 1.312582	 -0.625796
H	 1.145296	 -1.413603	 1.027773
C	 0.954706	 0.421263	 -0.036182
H	 0.437327	 2.203971	 -1.100183
C	 2.406113	 0.689592	 -0.056901
O	 2.928812	 1.549279	 -0.696026
H	 3.007267	 0.027240	 0.574821

7 11 13 14 F

