%nprocshared=1
%mem=2GB
#HF/6-31G* nosymm scf=tight 

Mol

0 1
H	 2.332609	 0.878551	 -1.051851
C	 2.357710	 0.000000	 -0.417167
C	 1.175432	 0.000000	 0.532082
H	 3.291263	 0.000000	 0.136880
H	 2.332609	 -0.878551	 -1.051851
O	 0.000000	 0.000000	 -0.221444
H	 1.206604	 0.877321	 1.177902
H	 1.206604	 -0.877321	 1.177902
C	 -1.175432	 0.000000	 0.532082
C	 -1.182739	 -1.232094	 1.415680
H	 -2.043250	 -0.000000	 -0.127190
H	 -1.231434	 0.903358	 1.139170
H	 -1.138364	 -2.130857	 0.811063
H	 -2.085720	 -1.264152	 2.017416
H	 -0.325409	 -1.226232	 2.079198
