%nprocshared=1
%mem=2GB
#HF/6-31G* nosymm scf=tight 

Mol

0 1
H	 -2.798360	 -0.862255	 -0.071053
N	 -1.863561	 -0.715187	 0.256814
C	 -1.344686	 0.554728	 -0.219830
H	 -1.300452	 -1.461917	 -0.101532
C	 -0.544924	 1.229950	 0.874515
H	 -0.711516	 0.466244	 -1.103724
H	 -2.181435	 1.195192	 -0.481438
O	 -1.416460	 1.549563	 1.921110
H	 0.240970	 0.564800	 1.231705
H	 -0.078391	 2.131401	 0.483405
C	 -0.825683	 2.255919	 2.964956
H	 -1.589059	 2.442931	 3.707910
H	 -0.019868	 1.686603	 3.424873
H	 -0.424476	 3.207994	 2.623788

8 5 3 6 F

5 8 11 13 F

11 8 5 3 F

