%nprocshared=1
%mem=2GB
#HF/6-31G* nosymm scf=tight 

Mol

0 1
H	 -0.821032	 -1.655889	 0.000000
O	 -1.037828	 -0.728600	 0.000000
C	 0.100509	 -0.036935	 0.000000
C	 1.291163	 -0.919910	 0.242074
O	 0.130929	 1.136940	 -0.174107
H	 1.184370	 -1.422230	 1.196530
H	 2.191032	 -0.323814	 0.234641
H	 1.342175	 -1.681945	 -0.526962
