%nprocshared=1
%mem=2GB
#HF/6-31G* nosymm scf=tight 

Mol

0 1
O	 -0.473266	 -3.641381	 -4.356506
C	 0.519673	 -4.045637	 -3.832022
C	 0.828315	 -3.707239	 -2.384081
C	 1.498728	 -4.935486	 -4.564824
C	 1.191012	 -2.220955	 -2.233909
H	 1.669889	 -4.317997	 -2.075810
H	 -0.017068	 -3.949437	 -1.746355
C	 0.149006	 -1.302371	 -2.876593
H	 1.292179	 -2.002744	 -1.176775
H	 2.162733	 -2.033234	 -2.688075
C	 0.075323	 -1.399736	 -4.404711
H	 0.355695	 -0.272340	 -2.591915
H	 -0.829982	 -1.541566	 -2.466451
C	 -1.053427	 -2.288511	 -4.930067
H	 1.023541	 -1.787350	 -4.768483
H	 -0.024340	 -0.400645	 -4.824201
H	 -0.984148	 -3.291584	 -4.518035
H	 -1.004790	 -2.372263	 -6.011279
H	 -2.032469	 -1.894716	 -4.678683
H	 2.441180	 -4.410531	 -4.696998
H	 1.100061	 -5.206533	 -5.532492
H	 1.709645	 -5.831578	 -3.988336

6 3 2 1 F

6 3 5 8 F

3 5 8 12 F

