%nprocshared=1
%mem=2GB
#HF/6-31G* nosymm scf=tight 
prop=(read,field)

Mol

0 1
O	 0.074346	 1.262834	 -0.000085
C	 0.028768	 0.075108	 -0.000277
C	 -1.233484	 -0.752752	 0.000328
O	 1.109280	 -0.694564	 -0.000298
C	 -2.501412	 0.091936	 0.000126
H	 -1.193689	 -1.406586	 -0.865785
H	 -1.193398	 -1.405724	 0.867015
H	 -2.545003	 0.729383	 -0.874513
H	 -3.377049	 -0.548442	 0.000561
H	 -2.544700	 0.730190	 0.874258
C	 2.364861	 -0.039503	 0.000150
H	 2.471265	 0.578092	 -0.880002
H	 3.106400	 -0.823073	 -0.000831
H	 2.471741	 0.576379	 0.881477

@grid.dat /N
