%nprocshared=1
%mem=2GB
#HF/6-31G* nosymm scf=tight opt=ModRedundant

Mol

0 1
O	 3.341000	 0.980000	 -0.604000
C	 2.817000	 0.067000	 -0.052000
C	 1.361000	 -0.005000	 0.341000
O	 3.463000	 -1.038000	 0.299000
C	 0.571000	 1.240000	 -0.055000
H	 0.954000	 -0.905000	 -0.109000
H	 1.323000	 -0.167000	 1.415000
C	 -0.884000	 1.228000	 0.428000
H	 0.598000	 1.355000	 -1.135000
H	 1.073000	 2.112000	 0.351000
C	 -1.768000	 0.155000	 -0.212000
H	 -1.316000	 2.204000	 0.220000
H	 -0.905000	 1.115000	 1.511000
C	 -3.232000	 0.255000	 0.220000
H	 -1.706000	 0.240000	 -1.296000
H	 -1.395000	 -0.836000	 0.038000
C	 -4.125000	 -0.817000	 -0.409000
H	 -3.618000	 1.240000	 -0.040000
H	 -3.294000	 0.181000	 1.305000
C	 -5.586000	 -0.708000	 0.025000
H	 -4.064000	 -0.745000	 -1.493000
H	 -3.744000	 -1.802000	 -0.147000
H	 -6.193000	 -1.480000	 -0.437000
H	 -6.007000	 0.254000	 -0.255000
H	 -5.684000	 -0.810000	 1.102000
C	 4.843000	 -1.100000	 -0.011000
H	 4.997000	 -1.024000	 -1.077000
H	 5.184000	 -2.059000	 0.349000
H	 5.380000	 -0.303000	 0.483000
