%nprocshared=1
%mem=2GB
#HF/6-31G* nosymm scf=tight 

Mol

0 1
H	 0.967521	 -2.536958	 0.855469
C	 0.913559	 -1.708911	 1.572566
C	 -0.339061	 -0.874650	 1.495827
O	 1.804309	 -1.522192	 2.336654
C	 -0.558097	 -0.297372	 0.091132
H	 -0.270512	 -0.089469	 2.239651
H	 -1.180790	 -1.514653	 1.757971
C	 -1.850991	 0.512573	 -0.019058
H	 0.287164	 0.334039	 -0.172739
H	 -0.577760	 -1.106760	 -0.636442
C	 -3.096943	 -0.368295	 -0.099594
H	 -1.800724	 1.150330	 -0.898172
H	 -1.931651	 1.177355	 0.838044
H	 -3.060452	 -1.020287	 -0.967456
H	 -3.996858	 0.233488	 -0.175704
H	 -3.191959	 -0.995686	 0.782074

6 3 5 9 F

4 2 3 6 F

