%nprocshared=1
%mem=2GB
#HF/6-31G* nosymm scf=tight 

Mol

0 1
O	 -0.389695	 0.092980	 2.453461
C	 -0.833093	 0.610524	 1.479901
C	 -1.689737	 1.847648	 1.474314
O	 -0.632575	 0.154573	 0.251549
H	 -2.647636	 1.627754	 1.017121
H	 -1.833848	 2.193421	 2.486988
H	 -1.213112	 2.620317	 0.882227
C	 0.160891	 -1.019931	 0.106212
C	 1.589627	 -0.672828	 0.480843
H	 0.089836	 -1.367806	 -0.916050
H	 -0.238459	 -1.792301	 0.749618
C	 1.706474	 0.253623	 1.692633
H	 2.049034	 -0.200840	 -0.385243
H	 2.138204	 -1.593139	 0.663461
C	 0.851648	 -0.211574	 2.870709
H	 2.748322	 0.309727	 2.001672
H	 1.414322	 1.258448	 1.405697
H	 0.950902	 0.461654	 3.716254
H	 1.144080	 -1.204021	 3.202086
H	 -0.199882	 -0.250179	 2.600758

16 12 9 8 F

2 4 8 10 F

1 2 4 8 F

