%nprocshared=1
%mem=2GB
#HF/6-31G* nosymm scf=tight 

Mol

0 1
H	 -2.240291	 0.559484	 0.604969
C	 -2.008299	 -0.205926	 -0.129530
O	 -0.774054	 0.001095	 -0.743181
H	 -2.752932	 -0.160639	 -0.912984
H	 -2.076115	 -1.178578	 0.348530
C	 0.132924	 0.940878	 -0.194792
C	 1.423923	 0.692577	 -0.971761
C	 -0.349721	 2.375996	 -0.428629
C	 0.363019	 0.681352	 1.297461
H	 1.257779	 0.849469	 -2.031578
H	 1.753615	 -0.330538	 -0.830642
H	 2.213353	 1.360087	 -0.641773
H	 -0.578559	 2.528816	 -1.478061
H	 0.421126	 3.083516	 -0.140861
H	 -1.236178	 2.609238	 0.151327
H	 0.635267	 -0.356107	 1.460587
H	 1.167909	 1.307654	 1.668178
H	 -0.517730	 0.900473	 1.891514

2 3 6 7 F

