%nprocshared=1
%mem=2GB
#HF/6-31G* nosymm scf=tight 

Mol

0 1
H	 1.683992	 -4.671382	 -3.280058
C	 1.719282	 -3.830192	 -2.612056
C	 0.718308	 -3.638181	 -1.665798
C	 2.757649	 -2.924276	 -2.679616
H	 -0.098863	 -4.334283	 -1.598707
C	 0.760192	 -2.560734	 -0.807572
H	 3.540679	 -3.056721	 -3.405154
C	 2.814655	 -1.831735	 -1.820801
H	 -0.006225	 -2.400585	 -0.072187
C	 1.811852	 -1.649819	 -0.881454
H	 3.635010	 -1.144921	 -1.898078
O	 1.765256	 -0.628444	 0.000000
C	 2.778419	 0.335181	 0.000000
H	 2.731280	 0.961222	 -0.884976
H	 3.711703	 -0.207767	 0.000000
H	 2.731280	 0.961222	 0.884976

13 12 10 8 F

