%nprocshared=1
%mem=2GB
#HF/6-31G* nosymm scf=tight 

Mol

0 1
H	 -2.480382	 1.013927	 1.981880
O	 -1.649937	 1.465873	 2.044801
C	 -1.206816	 1.786405	 0.758385
C	 -0.795902	 0.595680	 -0.067389
H	 -0.359440	 2.450179	 0.887081
H	 -1.965135	 2.351558	 0.217478
C	 -1.522220	 -0.487727	 -0.255690
H	 0.179554	 0.672246	 -0.522476
H	 -1.071454	 -1.449856	 -0.418625
H	 -2.596511	 -0.445958	 -0.267127

5 3 2 1 F

5 3 4 7 F

