%nprocshared=1
%mem=2GB
#HF/6-31G* nosymm scf=tight 

Mol

0 1
H	 -0.367348	 2.047014	 -0.308205
C	 0.352277	 1.337084	 0.083769
N	 -0.000016	 0.000074	 -0.335546
H	 1.328359	 1.600444	 -0.307950
H	 0.381933	 1.450534	 1.172486
C	 0.934531	 -0.525766	 -1.304247
C	 -0.170848	 -0.891259	 0.788954
H	 0.599926	 -1.498068	 -1.647787
H	 0.983201	 0.133303	 -2.163737
H	 1.947850	 -0.637498	 -0.904767
H	 -0.929079	 -0.499170	 1.457330
H	 -0.502941	 -1.862913	 0.441044
H	 0.748710	 -1.033714	 1.366056
