%nprocshared=1
%mem=2GB
#HF/6-31G* nosymm scf=tight 

Mol

0 1
H	 2.332609	 0.878551	 -1.051851
C	 2.357710	 0.000000	 -0.417167
C	 1.175432	 0.000000	 0.532082
H	 3.291263	 0.000000	 0.136880
H	 2.332609	 -0.878551	 -1.051851
O	 0.000000	 0.000000	 -0.221444
H	 1.206604	 0.877321	 1.177902
H	 1.206604	 -0.877321	 1.177902
C	 -1.175432	 0.000000	 0.532082
C	 -0.848745	 -0.468223	 1.936680
H	 -1.914036	 -0.657809	 0.074372
H	 -1.605528	 1.001105	 0.555616
H	 -0.431339	 -1.468504	 1.913956
H	 -1.743036	 -0.480406	 2.551973
H	 -0.122399	 0.192736	 2.395876
