%nprocshared=1
%mem=2GB
#HF/6-31G* nosymm scf=tight 

Mol

0 1
H	 -3.420663	 1.227371	 -1.044276
O	 -3.452007	 0.283848	 -0.965577
C	 -3.181085	 -0.079926	 0.364119
C	 -1.765924	 0.277073	 0.805136
H	 -3.327791	 -1.152017	 0.410903
H	 -3.905698	 0.375695	 1.036898
C	 -0.677594	 -0.417312	 -0.014550
H	 -1.637766	 1.358238	 0.744969
H	 -1.659588	 0.017670	 1.857098
C	 0.738335	 -0.034840	 0.421385
H	 -0.814977	 -0.178223	 -1.064632
H	 -0.802730	 -1.495410	 0.071702
C	 1.543395	 -1.230394	 0.937731
H	 1.254268	 0.426018	 -0.417568
H	 0.684665	 0.724091	 1.200967
C	 1.027946	 -1.832343	 2.250028
H	 2.584208	 -0.935924	 1.062993
H	 1.538628	 -2.007775	 0.176499
C	 1.650998	 -3.179813	 2.619533
H	 -0.049399	 -1.956852	 2.171821
H	 1.192719	 -1.124157	 3.059674
H	 1.512603	 -3.905208	 1.822170
H	 1.191208	 -3.584206	 3.516135
H	 2.715872	 -3.096728	 2.810072

20 16 13 17 F

17 13 10 7 F

11 7 4 3 F

1 2 3 5 F

7 4 3 2 F

