%nprocshared=1
%mem=2GB
#HF/6-31G* nosymm scf=tight 

Mol

0 1
H	 -2.499100	 -0.730091	 -0.745082
O	 -2.347518	 -0.290803	 0.079804
C	 -1.184022	 0.487508	 -0.006784
C	 0.062599	 -0.378592	 0.031606
H	 -1.176523	 1.099369	 -0.904519
H	 -1.187323	 1.153111	 0.844927
O	 -0.305733	 -1.642921	 0.485018
H	 0.806791	 0.065254	 0.695804
H	 0.502532	 -0.429913	 -0.962582
C	 0.738193	 -2.562803	 0.541386
H	 1.522181	 -2.233769	 1.220893
H	 0.331191	 -3.497146	 0.902295
H	 1.178068	 -2.724992	 -0.440447

1 2 3 5 F

10 7 4 8 F

4 7 10 13 F

