%nprocshared=1
%mem=2GB
#HF/6-31G* nosymm scf=tight 

Mol

0 1
H	 0.563099	 -0.684934	 -3.458953
O	 0.702672	 -0.210063	 -2.652156
C	 -0.525563	 0.268235	 -2.167119
C	 -0.264206	 1.022419	 -0.875358
H	 -0.994471	 0.928059	 -2.895861
H	 -1.212869	 -0.556769	 -1.984587
C	 0.198102	 0.111031	 0.262842
H	 -1.175677	 1.541915	 -0.592386
H	 0.482810	 1.786762	 -1.070871
C	 1.331804	 -0.827780	 -0.158768
H	 0.517153	 0.722650	 1.103260
H	 -0.643205	 -0.483066	 0.617482
C	 2.723619	 -0.410569	 0.329459
H	 1.342964	 -0.912588	 -1.244120
H	 1.116806	 -1.824343	 0.220779
C	 3.243875	 0.895854	 -0.272975
H	 3.424222	 -1.207124	 0.091250
H	 2.714788	 -0.329854	 1.414619
H	 3.251977	 0.848779	 -1.358681
H	 2.637085	 1.747371	 0.016682
H	 4.259473	 1.094070	 0.055697

2 3 4 8 F

8 4 7 10 F

16 13 10 14 F

1 2 3 5 F

