%nprocshared=1
%mem=2GB
#HF/6-31G* nosymm scf=tight 

Mol

0 1
H	 -4.044752	 6.279988	 1.242905
C	 -4.315652	 5.238527	 1.029379
C	 -5.114077	 4.553516	 2.109143
O	 -3.980465	 4.731540	 0.008417
C	 -4.584017	 3.149626	 2.432227
H	 -5.118795	 5.189512	 2.986751
H	 -6.138858	 4.475057	 1.748140
C	 -4.782080	 2.145504	 1.293890
H	 -3.526182	 3.226665	 2.665322
H	 -5.066762	 2.780285	 3.335721
C	 -6.253274	 1.803461	 1.050150
H	 -4.230598	 1.235706	 1.521885
H	 -4.348461	 2.537912	 0.375996
C	 -7.144331	 3.045428	 0.963640
H	 -6.332835	 1.223705	 0.134024
H	 -6.611436	 1.159683	 1.852430
C	 -8.476090	 2.930578	 1.714174
H	 -7.340708	 3.275648	 -0.082366
H	 -6.595566	 3.895780	 1.362978
C	 -9.441535	 1.892099	 1.140506
H	 -8.962502	 3.902772	 1.700334
H	 -8.281521	 2.704290	 2.760528
H	 -9.641833	 2.084110	 0.089658
H	 -9.050397	 0.883621	 1.223924
H	 -10.390864	 1.916855	 1.666962

6 3 5 8 F

6 3 2 4 F

3 5 8 12 F

12 8 11 14 F

20 17 14 18 F

