%nprocshared=1
%mem=2GB
#HF/6-31G* nosymm scf=tight 

Mol

0 1
O	 -0.244009	 1.207436	 0.736335
C	 -0.424154	 0.084033	 0.394443
C	 -1.761208	 -0.603291	 0.345079
O	 0.550821	 -0.724572	 0.000672
H	 -1.962538	 -0.940166	 -0.665201
H	 -2.531840	 0.080592	 0.668070
H	 -1.747136	 -1.477134	 0.986000
C	 1.863949	 -0.193559	 -0.000319
H	 2.028859	 0.409284	 -0.881648
H	 2.526261	 -1.045082	 -0.000003
H	 2.029520	 0.410555	 0.880008

8 4 2 1 F

