%nprocshared=1
%mem=2GB
#HF/6-31G* nosymm scf=tight 

Mol

0 1
H	 -0.746769	 -3.375667	 -0.989636
O	 -0.556791	 -2.450388	 -1.050236
C	 -1.472170	 -1.728041	 -0.267365
C	 -1.137955	 -0.251707	 -0.387720
H	 -2.491639	 -1.908406	 -0.605683
H	 -1.414578	 -2.039539	 0.774745
C	 0.198102	 0.111031	 0.262842
H	 -1.943011	 0.319223	 0.066870
H	 -1.125506	 0.011178	 -1.441861
C	 1.331804	 -0.827780	 -0.158768
H	 0.452836	 1.136862	 0.007978
H	 0.094822	 0.080649	 1.346783
C	 2.723619	 -0.410569	 0.329459
H	 1.342964	 -0.912588	 -1.244120
H	 1.116806	 -1.824343	 0.220779
C	 3.243875	 0.895854	 -0.272975
H	 3.424222	 -1.207124	 0.091250
H	 2.714788	 -0.329854	 1.414619
H	 3.251977	 0.848779	 -1.358681
H	 2.637085	 1.747371	 0.016682
H	 4.259473	 1.094070	 0.055697

2 3 4 8 F

8 4 7 10 F

16 13 10 14 F

1 2 3 5 F

