%nprocshared=1
%mem=2GB
#HF/6-31G* nosymm scf=tight 

Mol

0 1
H	 -1.029483	 -2.168616	 1.116242
N	 -0.255388	 -1.542015	 1.008414
C	 -0.563778	 -0.502042	 0.037919
H	 0.522189	 -2.093033	 0.697754
C	 0.575259	 0.508231	 -0.048326
H	 -1.465470	 0.003483	 0.370473
H	 -0.775018	 -0.894107	 -0.960283
C	 1.954651	 -0.143624	 0.035137
H	 0.475158	 1.060484	 -0.977307
H	 0.469181	 1.234488	 0.755973
H	 2.103292	 -0.853109	 -0.774172
H	 2.742821	 0.599562	 -0.030094
H	 2.083613	 -0.679371	 0.971560

1 2 3 6 F

