%nprocshared=1
%mem=2GB
#HF/6-31G* nosymm scf=tight 

Mol

0 1
O	 -1.276010	 1.052711	 -0.768302
C	 -1.204840	 0.067374	 -0.106123
C	 -2.388195	 -0.672128	 0.458071
O	 -0.067104	 -0.527208	 0.221609
H	 -2.388023	 -1.694060	 0.097175
H	 -3.300579	 -0.174919	 0.164318
H	 -2.315377	 -0.706351	 1.539059
C	 1.170111	 0.034140	 -0.238951
C	 2.079444	 0.091971	 0.975692
C	 0.915759	 1.399642	 -0.858106
H	 1.580896	 -0.633228	 -0.982176
H	 2.221630	 -0.897572	 1.395018
H	 3.050095	 0.489077	 0.697348
H	 1.654558	 0.730543	 1.742732
H	 1.851382	 1.839909	 -1.187941
H	 0.260928	 1.316211	 -1.716134
H	 0.461356	 2.066397	 -0.132183

8 4 2 1 F

