%nprocshared=1
%mem=2GB
#HF/6-31G* nosymm scf=tight 

Mol

0 1
O	 2.785526	 1.476655	 -0.328869
C	 2.601771	 0.540213	 -1.044459
C	 1.311579	 -0.259498	 -1.016107
C	 3.653853	 0.085999	 -2.035402
C	 0.291004	 0.242674	 0.000989
H	 0.891001	 -0.249089	 -2.020793
H	 1.568635	 -1.300004	 -0.822016
C	 -0.994322	 -0.586602	 0.000262
H	 0.060001	 1.281970	 -0.210271
H	 0.738255	 0.229678	 0.989900
C	 -2.259874	 0.272531	 0.000494
H	 -1.004862	 -1.240012	 -0.870939
H	 -1.005220	 -1.241071	 0.870675
C	 -3.549786	 -0.549746	 -0.000374
H	 -2.250389	 0.926680	 -0.869574
H	 -2.250838	 0.925513	 0.871430
C	 -4.809590	 0.315458	 -0.000369
H	 -3.560515	 -1.202009	 -0.871156
H	 -3.561123	 -1.202955	 0.869711
H	 -4.844746	 0.956611	 -0.876632
H	 -5.706986	 -0.295590	 -0.001609
H	 -4.845960	 0.954827	 0.877144
H	 3.259942	 0.116641	 -3.047091
H	 4.521313	 0.727528	 -1.966214
H	 3.945390	 -0.940717	 -1.834170

15 11 8 12 F

15 11 14 18 F

1 2 3 6 F

9 5 3 6 F

