%nprocshared=1
%mem=2GB
#HF/6-31G* nosymm scf=tight 

Mol

0 1
H	 5.829392	 -2.110058	 3.636217
C	 5.803512	 -3.110224	 3.214887
C	 6.900576	 -3.296981	 2.167628
H	 5.920711	 -3.816305	 4.031622
H	 4.817539	 -3.262390	 2.784187
C	 6.888022	 -4.696053	 1.547745
H	 7.867367	 -3.112465	 2.624651
H	 6.777080	 -2.554010	 1.381221
C	 5.501230	 -5.158893	 1.100695
H	 7.559585	 -4.722908	 0.696908
H	 7.268782	 -5.410069	 2.274549
C	 4.964761	 -4.436609	 -0.126394
H	 5.530849	 -6.217836	 0.848641
H	 4.781675	 -5.069909	 1.911559
C	 3.475324	 -4.538016	 -0.405696
O	 5.684974	 -3.825960	 -0.857699
C	 3.142513	 -5.197708	 -1.752249
H	 3.077758	 -3.530724	 -0.373804
H	 3.010537	 -5.105855	 0.398180
C	 3.906992	 -6.506058	 -1.962969
H	 2.073565	 -5.394231	 -1.800676
H	 3.371148	 -4.517137	 -2.568350
C	 3.584233	 -7.172245	 -3.299729
H	 3.675183	 -7.191428	 -1.151430
H	 4.975620	 -6.311267	 -1.903941
H	 2.526789	 -7.408725	 -3.374670
H	 3.837980	 -6.523738	 -4.133494
H	 4.139105	 -8.097216	 -3.419829

10 6 3 2 F

12 15 17 21 F

