%nprocshared=1
%mem=2GB
#HF/6-31G* nosymm scf=tight opt=ModRedundant

Mol

0 1
H	 2.423000	 -2.239000	 0.000000
O	 2.742000	 -1.347000	 0.000000
C	 1.723000	 -0.464000	 -0.000000
C	 2.050000	 0.888000	 -0.000000
C	 0.399000	 -0.857000	 0.000000
H	 3.087000	 1.168000	 -0.000000
C	 1.052000	 1.840000	 0.000000
H	 0.119000	 -1.892000	 0.000000
C	 -0.578000	 0.125000	 -0.000000
H	 1.313000	 2.882000	 -0.000000
C	 -0.287000	 1.471000	 0.000000
N	 -1.977000	 -0.295000	 -0.000000
H	 -1.072000	 2.198000	 0.000000
O	 -2.204000	 -1.468000	 -0.000000
O	 -2.812000	 0.556000	 0.000000
