%nprocshared=1
%mem=2GB
#HF/6-31G* nosymm scf=tight 

Mol

0 1
O	 -2.324811	 1.361668	 -0.277141
C	 -2.105949	 0.203097	 -0.092081
C	 -0.889235	 -0.467034	 -0.705952
C	 -3.002726	 -0.644460	 0.782455
C	 0.407255	 0.205194	 -0.225987
H	 -0.969319	 -0.370820	 -1.783278
H	 -0.871456	 -1.525239	 -0.461181
C	 1.653266	 -0.425618	 -0.852202
H	 0.350719	 1.260415	 -0.468262
H	 0.476689	 0.134886	 0.858440
C	 2.978873	 0.161525	 -0.354120
H	 1.599996	 -0.324742	 -1.934659
H	 1.647594	 -1.493697	 -0.644781
C	 3.212227	 1.622085	 -0.744384
H	 3.790849	 -0.440967	 -0.753357
H	 3.031936	 0.062189	 0.728194
H	 3.154223	 1.752153	 -1.821622
H	 4.195670	 1.952584	 -0.424993
H	 2.483669	 2.286072	 -0.291488
H	 -3.496582	 -1.399307	 0.176174
H	 -3.747939	 -0.023774	 1.260148
H	 -2.421318	 -1.168775	 1.535358

6 3 5 8 F

3 5 8 12 F

12 8 11 15 F

