%nprocshared=1
%mem=2GB
#HF/6-31G* nosymm scf=tight 

Mol

0 1
H	 2.178883	 -1.166950	 -1.872347
O	 1.610894	 -1.317283	 -1.122963
C	 0.633661	 -0.412002	 -1.156295
C	 -0.318135	 -0.576402	 0.000164
O	 0.560013	 0.407720	 -2.012816
C	 -1.454360	 0.441875	 -0.000474
H	 -0.699889	 -1.593233	 -0.036206
H	 0.267485	 -0.513103	 0.913425
C	 -2.826123	 -0.230780	 0.000056
H	 -1.357605	 1.085198	 -0.868380
H	 -1.357504	 1.086451	 0.866496
H	 -2.959731	 -0.858053	 -0.876869
H	 -3.619374	 0.509403	 -0.000080
H	 -2.959371	 -0.857318	 0.877556

2 3 4 7 F

1 2 3 5 F

