%nprocshared=1
%mem=2GB
#HF/6-31G* nosymm scf=tight 

Mol

0 1
H	 -2.577606	 0.247184	 1.509904
O	 -1.840915	 -0.185680	 1.103718
C	 -2.061112	 -1.573124	 1.079922
C	 -1.204307	 -2.300164	 0.049376
H	 -1.816916	 -1.926947	 2.073327
H	 -3.115373	 -1.788777	 0.910193
C	 0.274294	 -1.905577	 0.079535
H	 -1.299933	 -3.370179	 0.214571
H	 -1.613620	 -2.093761	 -0.938160
C	 0.511680	 -0.465822	 -0.384762
H	 0.838793	 -2.587611	 -0.550176
H	 0.659600	 -2.022265	 1.092582
C	 -0.429682	 0.573874	 0.234280
H	 1.542920	 -0.187515	 -0.175155
H	 0.402048	 -0.428537	 -1.466562
C	 -1.897291	 0.443424	 -0.182356
H	 -0.367921	 0.488858	 1.317227
H	 -0.072571	 1.573021	 -0.010696
C	 -2.130823	 0.781498	 -1.656332
H	 -2.506042	 1.100837	 0.436789
H	 -2.251545	 -0.567108	 0.006405
C	 -1.145777	 0.083358	 -2.593322
H	 -3.146808	 0.507069	 -1.931925
H	 -2.058334	 1.858338	 -1.794340
H	 -1.216876	 -0.996895	 -2.502640
H	 -1.338288	 0.341330	 -3.630156
H	 -0.121414	 0.366079	 -2.367240

14 10 7 4 F

14 10 13 16 F

10 7 4 8 F

8 4 3 2 F

10 13 16 20 F

20 16 19 22 F

