%nprocshared=1
%mem=2GB
#HF/6-31G* nosymm scf=tight 

Mol

0 1
H	 2.038305	 1.800597	 -1.632070
C	 1.314168	 1.603160	 -0.850039
C	 1.322923	 0.120767	 -0.479465
H	 1.568374	 2.225934	 0.001962
H	 0.339850	 1.913448	 -1.214758
C	 0.306652	 -0.176050	 0.621399
H	 2.309307	 -0.171654	 -0.134553
H	 1.086865	 -0.485315	 -1.346184
N	 -1.068537	 -0.011044	 0.085269
H	 0.372515	 -1.192590	 0.973735
H	 0.391664	 0.520566	 1.441230
O	 -1.656956	 -0.997225	 -0.235017
O	 -1.478635	 1.104830	 -0.018026

12 9 6 3 F

