%nprocshared=1
%mem=2GB
#HF/6-31G* nosymm scf=tight 

Mol

0 1
O	 1.077970	 -2.066162	 -1.680953
C	 0.281390	 -1.663098	 -0.897131
C	 -1.141209	 -2.138579	 -0.784455
O	 0.550821	 -0.724572	 0.000672
H	 -1.317500	 -2.533632	 0.209295
H	 -1.327379	 -2.901979	 -1.525031
H	 -1.818160	 -1.305078	 -0.931404
C	 1.863949	 -0.193559	 -0.000319
H	 2.028859	 0.409284	 -0.881648
H	 2.526261	 -1.045082	 -0.000003
H	 2.029520	 0.410555	 0.880008

8 4 2 1 F

