%nprocshared=1
%mem=2GB
#HF/6-31G* nosymm scf=tight 

Mol

0 1
H	 1.148083	 -1.049780	 0.784252
O	 1.319262	 -0.618148	 -0.041729
C	 0.709265	 0.639550	 -0.033818
C	 0.684045	 1.321704	 -1.376431
H	 1.269951	 1.243143	 0.670816
H	 -0.307280	 0.574197	 0.352694
C	 1.308442	 0.899023	 -2.457279
H	 0.099746	 2.228100	 -1.415475
H	 1.913758	 0.010782	 -2.450117
H	 1.246039	 1.437337	 -3.385881

5 3 4 7 F

3 4 7 9 F

