%nprocshared=1
%mem=2GB
#HF/6-31G* nosymm scf=tight 

Mol

0 1
O	 -1.276010	 1.052711	 -0.768302
C	 -1.204840	 0.067374	 -0.106123
C	 -2.388195	 -0.672128	 0.458071
O	 -0.067104	 -0.527208	 0.221609
H	 -2.388023	 -1.694060	 0.097175
H	 -3.300579	 -0.174919	 0.164318
H	 -2.315377	 -0.706351	 1.539059
C	 0.270512	 -0.668856	 1.608648
C	 -0.936457	 -1.312433	 2.267908
C	 0.614835	 0.691356	 2.195087
H	 1.126978	 -1.323361	 1.676447
H	 -1.156985	 -2.270415	 1.810870
H	 -0.744620	 -1.472393	 3.323817
H	 -1.810651	 -0.677685	 2.170269
H	 0.848996	 0.594243	 3.250433
H	 1.475739	 1.117807	 1.696128
H	 -0.224340	 1.371970	 2.092338

11 8 4 2 F

