%nprocshared=1
%mem=2GB
#HF/6-31G* nosymm scf=tight 

Mol

0 1
O	 -2.042549	 -1.228399	 -0.269030
C	 -1.653912	 -0.146171	 0.050137
C	 -0.332303	 0.024011	 0.778412
C	 -2.438579	 1.106236	 -0.272369
C	 0.845713	 -0.001731	 -0.208243
H	 -0.323783	 0.953829	 1.340327
H	 -0.235459	 -0.796807	 1.480410
C	 1.519257	 -1.372641	 -0.285531
H	 1.583884	 0.744491	 0.080442
H	 0.481159	 0.284861	 -1.190132
C	 0.517318	 -2.515406	 -0.444947
H	 2.218641	 -1.385482	 -1.118670
H	 2.110122	 -1.532063	 0.613375
H	 -0.066309	 -2.402120	 -1.354122
H	 -0.175607	 -2.548026	 0.390657
H	 1.022508	 -3.474789	 -0.493877
H	 -3.277823	 0.863061	 -0.908988
H	 -1.806773	 1.843019	 -0.759671
H	 -2.802853	 1.554979	 0.648059

11 8 5 9 F

5 3 2 4 F

