%nprocshared=1
%mem=2GB
#HF/6-31G* nosymm scf=tight 

Mol

0 1
H	 -0.232351	 -2.656523	 -4.359724
C	 0.193212	 -2.225670	 -3.471843
C	 -0.254919	 -2.614922	 -2.214113
C	 1.192108	 -1.278254	 -3.561640
H	 -1.032893	 -3.352237	 -2.124939
C	 0.288376	 -2.064663	 -1.073393
H	 1.551249	 -0.965018	 -4.525997
C	 1.750869	 -0.713262	 -2.420137
H	 -0.048400	 -2.356242	 -0.095948
C	 1.296871	 -1.108364	 -1.171594
H	 2.526075	 0.021022	 -2.522851
O	 1.765256	 -0.628444	 0.000000
C	 2.778419	 0.335181	 0.000000
H	 2.731280	 0.961222	 -0.884976
H	 3.711703	 -0.207767	 0.000000
H	 2.731280	 0.961222	 0.884976

13 12 10 8 F

