%nprocshared=1
%mem=2GB
#HF/6-31G* nosymm scf=tight 

Mol

0 1
H	 -2.698709	 -0.000305	 0.034435
C	 -1.693833	 0.000034	 0.434417
O	 -0.828952	 -0.000968	 -0.659236
H	 -1.574200	 0.882896	 1.055746
H	 -1.574147	 -0.881698	 1.057355
C	 0.559449	 -0.000018	 -0.420814
C	 0.995616	 1.143816	 0.492597
C	 1.071571	 -1.355734	 0.061601
H	 0.977960	 0.182144	 -1.403513
H	 0.573079	 2.081798	 0.148794
H	 2.077292	 1.233992	 0.483633
H	 0.690102	 0.986895	 1.522258
H	 0.701031	 -2.147854	 -0.580040
H	 2.156614	 -1.374049	 0.033148
H	 0.768608	 -1.570349	 1.081402

6 3 2 1 F

