%nprocshared=1
%mem=2GB
#HF/6-31G* nosymm scf=tight 

Mol

0 1
H	 -2.421521	 1.263602	 2.183376
C	 -2.069970	 0.240925	 2.062203
O	 -0.798221	 0.203235	 1.499556
H	 -2.009924	 -0.226204	 3.035510
H	 -2.792893	 -0.302773	 1.455406
C	 -0.719715	 0.768384	 0.229244
C	 0.719720	 0.768376	 -0.229267
H	 -1.321027	 0.195073	 -0.477462
H	 -1.093752	 1.790172	 0.236370
O	 1.392611	 -0.295398	 0.366430
H	 0.750534	 0.687200	 -1.313918
H	 1.185043	 1.714359	 0.050526
C	 2.706965	 -0.449871	 -0.062409
H	 2.756559	 -0.644779	 -1.131878
H	 3.305899	 0.433456	 0.155466
H	 3.125548	 -1.294566	 0.467107

7 10 13 14 F

2 3 6 7 F

