%nprocshared=1
%mem=2GB
#HF/6-31G* nosymm scf=tight 

Mol

0 1
H	 5.817097	 -3.451177	 4.188709
C	 5.836031	 -4.252018	 3.456031
C	 6.906265	 -4.003742	 2.393895
H	 6.022115	 -5.181209	 3.986425
H	 4.846784	 -4.316814	 3.011069
C	 6.955315	 -5.112199	 1.339982
H	 7.875355	 -3.918630	 2.874750
H	 6.712747	 -3.050447	 1.904537
C	 5.583937	 -5.490337	 0.779983
H	 7.598228	 -4.807801	 0.521661
H	 7.401788	 -6.001134	 1.779865
C	 4.964761	 -4.436609	 -0.126394
H	 5.667413	 -6.399369	 0.186296
H	 4.888134	 -5.726167	 1.582117
C	 3.475324	 -4.538016	 -0.405696
O	 5.622661	 -3.569734	 -0.618431
C	 3.142513	 -5.197708	 -1.752249
H	 3.077758	 -3.530724	 -0.373804
H	 3.010537	 -5.105855	 0.398180
C	 3.906992	 -6.506058	 -1.962969
H	 2.073565	 -5.394231	 -1.800676
H	 3.371148	 -4.517137	 -2.568350
C	 3.584233	 -7.172245	 -3.299729
H	 3.675183	 -7.191428	 -1.151430
H	 4.975620	 -6.311267	 -1.903941
H	 2.526789	 -7.408725	 -3.374670
H	 3.837980	 -6.523738	 -4.133494
H	 4.139105	 -8.097216	 -3.419829

10 6 3 2 F

12 15 17 21 F

