%nprocshared=1
%mem=2GB
#HF/6-31G* nosymm scf=tight 

Mol

0 1
H	 -1.748661	 -2.220942	 -0.005015
C	 -1.343207	 -1.225221	 -0.013879
N	 -0.055091	 -1.100174	 -0.261126
C	 -2.150779	 -0.125890	 0.222726
C	 0.449969	 0.122615	 -0.277109
H	 -3.200618	 -0.238980	 0.422496
N	 -1.660212	 1.097703	 0.209594
C	 -0.371804	 1.219904	 -0.038265
C	 1.928147	 0.267347	 -0.541394
H	 0.029131	 2.217482	 -0.051283
C	 2.782957	 -0.217029	 0.634485
H	 2.173633	 -0.308685	 -1.427276
H	 2.156913	 1.305589	 -0.760241
H	 3.838911	 -0.124705	 0.401171
H	 2.572790	 -1.257134	 0.854692
H	 2.584155	 0.365416	 1.528658
