%nprocshared=1
%mem=2GB
#HF/6-31G* nosymm scf=tight 

Mol

0 1
O	 -0.488453	 0.057968	 1.132425
C	 -0.451170	 -1.129930	 1.097049
C	 0.801727	 -1.959116	 0.945507
O	 -1.528589	 -1.897310	 1.185968
C	 1.124911	 -2.785238	 2.184071
H	 1.613075	 -1.280220	 0.700432
H	 0.669725	 -2.590969	 0.072237
H	 1.272053	 -2.149836	 3.048928
H	 2.030738	 -3.360307	 2.024106
H	 0.320287	 -3.472711	 2.414906
C	 -2.431891	 -1.893105	 0.085319
C	 -3.092759	 -0.531487	 0.045810
H	 -3.155883	 -2.685039	 0.220448
H	 -1.881722	 -2.097040	 -0.823150
H	 -3.635018	 -0.340203	 0.964790
H	 -3.792687	 -0.484450	 -0.782161
H	 -2.353965	 0.251097	 -0.084580

2 4 11 13 F

4 2 3 6 F

