%nprocshared=1
%mem=2GB
#HF/6-31G* nosymm scf=tight 

Mol

0 1
O	 -1.276010	 1.052711	 -0.768302
C	 -1.204840	 0.067374	 -0.106123
C	 -2.388195	 -0.672128	 0.458071
O	 -0.067104	 -0.527208	 0.221609
H	 -2.388023	 -1.694060	 0.097175
H	 -3.300579	 -0.174919	 0.164318
H	 -2.315377	 -0.706351	 1.539059
C	 1.170111	 0.034140	 -0.238951
C	 2.111505	 -1.140155	 -0.439942
C	 1.685214	 1.043672	 0.775031
H	 0.980459	 0.526897	 -1.181146
H	 1.700412	 -1.842181	 -1.156468
H	 3.069385	 -0.791848	 -0.812072
H	 2.276636	 -1.663729	 0.495608
H	 2.633102	 1.455320	 0.443264
H	 0.985039	 1.860881	 0.892929
H	 1.837410	 0.568849	 1.739078

8 4 2 1 F

