%nprocshared=1
%mem=2GB
#HF/6-31G* nosymm scf=tight 

Mol

0 1
H	 -3.269016	 -0.876744	 0.468090
C	 -2.809304	 0.000122	 0.025886
N	 -1.391456	 0.000019	 0.300661
H	 -3.037557	 -0.000063	 -1.044252
H	 -3.269223	 0.876956	 0.468000
C	 -0.687133	 1.027277	 -0.441268
C	 -0.787982	 -1.299424	 0.079128
H	 -0.768201	 0.870259	 -1.521212
H	 -1.133561	 1.989919	 -0.214144
C	 0.782648	 1.050663	 -0.051696
H	 -1.307990	 -2.033674	 0.685779
H	 -0.875724	 -1.610463	 -0.966369
C	 0.681799	 -1.276037	 0.468701
H	 1.302655	 1.784914	 -0.658346
H	 0.870390	 1.361702	 0.993801
N	 1.386122	 -0.248779	 -0.273229
H	 1.128227	 -2.238679	 0.241576
H	 0.762867	 -1.119019	 1.548645
C	 2.803970	 -0.248883	 0.001545
H	 3.298254	 0.490207	 -0.619102
H	 3.224345	 -1.219665	 -0.236558
H	 3.037035	 -0.024969	 1.046935
