%nprocshared=1
%mem=2GB
#HF/6-31G* nosymm scf=tight 

Mol

0 1
H	 -2.798360	 -0.862255	 -0.071053
N	 -1.863561	 -0.715187	 0.256814
C	 -1.344686	 0.554728	 -0.219830
H	 -1.300452	 -1.461917	 -0.101532
C	 -1.334835	 0.573636	 -1.733990
H	 -1.909754	 1.419320	 0.131141
H	 -0.324305	 0.667248	 0.133642
O	 -0.427137	 -0.393495	 -2.178770
H	 -2.330906	 0.357703	 -2.119807
H	 -1.038259	 1.559397	 -2.085488
C	 -0.253904	 -0.426570	 -3.559519
H	 0.461951	 -1.206226	 -3.781750
H	 -1.187571	 -0.650326	 -4.072531
H	 0.127821	 0.520544	 -3.935112

8 5 3 6 F

5 8 11 13 F

11 8 5 3 F

