%nprocshared=1
%mem=2GB
#HF/6-31G* nosymm scf=tight 

Mol

0 1
H	 1.599720	 -1.441168	 1.492210
C	 1.753642	 -0.434086	 1.086136
C	 0.505924	 0.399805	 0.949152
O	 2.845478	 -0.070678	 0.789560
C	 -0.558097	 -0.297372	 0.091132
H	 0.783427	 1.360504	 0.531383
H	 0.108442	 0.569331	 1.949202
C	 -1.850991	 0.512573	 -0.019058
H	 -0.156727	 -0.474030	 -0.904090
H	 -0.781674	 -1.276023	 0.511983
C	 -3.096943	 -0.368295	 -0.099594
H	 -1.800724	 1.150330	 -0.898172
H	 -1.931651	 1.177355	 0.838044
H	 -3.060452	 -1.020287	 -0.967456
H	 -3.996858	 0.233488	 -0.175704
H	 -3.191959	 -0.995686	 0.782074

6 3 5 9 F

4 2 3 6 F

