%nprocshared=1
%mem=2GB
#HF/6-31G* nosymm scf=tight 

Mol

0 1
O	 -0.682937	 1.318834	 -0.186099
C	 -0.860635	 0.152188	 -0.042321
C	 -2.173363	 -0.477127	 0.338347
O	 0.083258	 -0.765189	 -0.202595
H	 -2.477673	 -1.180929	 -0.427595
H	 -2.923125	 0.290956	 0.455536
H	 -2.058825	 -1.029004	 1.264191
C	 1.391937	 -0.334737	 -0.569838
C	 1.380992	 1.085266	 -1.104739
H	 1.802090	 -1.023240	 -1.292941
H	 1.965010	 -0.399995	 0.343851
H	 2.397536	 1.410553	 -1.303628
H	 0.818029	 1.145605	 -2.027669
H	 0.942192	 1.762499	 -0.380014

8 4 2 1 F

