%nprocshared=1
%mem=2GB
#HF/6-31G* nosymm scf=tight 

Mol

0 1
O	 -0.806752	 -1.114546	 1.082146
C	 -0.561929	 -0.074560	 0.531515
C	 -1.597472	 1.034011	 0.503089
N	 0.623947	 0.147590	 -0.102813
H	 -1.868528	 1.298769	 -0.513038
H	 -2.472791	 0.671041	 1.019920
H	 -1.237628	 1.928840	 0.999450
C	 0.640745	 1.025320	 -1.256583
C	 1.798623	 -0.680030	 0.062799
H	 1.667395	 1.237155	 -1.534310
H	 0.139088	 1.945888	 -1.014025
H	 0.142885	 0.567459	 -2.108592
H	 2.683849	 -0.066708	 -0.056579
H	 1.837941	 -1.121429	 1.045934
H	 1.841141	 -1.477740	 -0.676568

2 4 8 10 F

