%nprocshared=24
%mem=2GB
#HF/6-31G* nosymm scf=tight 

Mol

0 1
H	 -3.715462	 -2.688991	 1.218960
C	 -3.166077	 -1.806841	 0.953162
C	 -1.927123	 -1.910081	 0.530864
H	 -3.651941	 -0.853396	 1.041415
O	 -1.180634	 -0.819263	 0.215062
H	 -1.424909	 -2.855870	 0.428591
C	 0.051604	 -1.018856	 -0.387932
C	 1.043764	 0.054862	 -0.001873
H	 -0.017620	 -1.041351	 -1.469781
H	 0.437898	 -1.966374	 -0.042284
F	 0.990529	 0.254188	 1.307035
F	 2.284001	 -0.290991	 -0.305236
F	 0.789209	 1.201364	 -0.597797

11 8 7 9 F

6 3 2 1 F

6 3 5 7 F

