%nprocshared=1
%mem=2GB
#HF/6-31G* nosymm scf=tight 

Mol

0 1
H	 -2.419011	 0.815210	 1.246554
O	 -1.644418	 0.278876	 1.332709
C	 -1.147539	 0.371727	 2.643642
C	 -2.003064	 -0.370044	 3.664709
H	 -0.156011	 -0.061473	 2.613932
H	 -1.035610	 1.415253	 2.935711
C	 -2.383170	 -1.791485	 3.242934
H	 -1.464547	 -0.401042	 4.608322
H	 -2.908013	 0.210908	 3.834791
C	 -3.350541	 -1.817420	 2.056200
H	 -2.831493	 -2.306803	 4.087812
H	 -1.481252	 -2.344745	 2.980658
C	 -2.966052	 -0.897265	 0.891802
H	 -3.443129	 -2.839033	 1.692080
H	 -4.339058	 -1.531181	 2.409191
C	 -3.034785	 0.600176	 1.203932
H	 -1.951225	 -1.141037	 0.584367
H	 -3.601654	 -1.116777	 0.035261
C	 -4.465221	 1.099239	 1.418936
H	 -2.579565	 1.158425	 0.387083
H	 -2.447531	 0.824935	 2.091017
C	 -5.411106	 0.710962	 0.283063
H	 -4.847259	 0.703375	 2.357459
H	 -4.456195	 2.181939	 1.526468
H	 -5.467273	 -0.368187	 0.171231
H	 -6.416738	 1.077069	 0.465559
H	 -5.076338	 1.123259	 -0.664726

14 10 7 4 F

14 10 13 16 F

10 7 4 8 F

8 4 3 2 F

10 13 16 20 F

4 3 2 1 F

