%nprocshared=1
%mem=2GB
#HF/6-31G* nosymm scf=tight 

Mol

0 1
H	 -2.798360	 -0.862255	 -0.071053
N	 -1.863561	 -0.715187	 0.256814
C	 -1.344686	 0.554728	 -0.219830
H	 -1.300452	 -1.461917	 -0.101532
C	 0.081427	 0.741154	 0.254071
H	 -1.362155	 0.656231	 -1.305829
H	 -1.952773	 1.354456	 0.191809
O	 0.260201	 -0.017362	 1.415871
H	 0.779934	 0.415830	 -0.516572
H	 0.264095	 1.793736	 0.458862
C	 1.510230	 0.128931	 2.010511
H	 1.530710	 -0.500010	 2.890120
H	 2.309118	 -0.180341	 1.338864
H	 1.690196	 1.159538	 2.309293

6 3 2 4 F

5 8 11 13 F

11 8 5 3 F

