%nprocshared=1
%mem=2GB
#HF/6-31G* nosymm scf=tight 

Mol

0 1
O	 -0.644987	 -1.652990	 1.664992
C	 -1.514987	 -1.440192	 0.882411
C	 -2.775474	 -2.260464	 0.784449
O	 -1.481751	 -0.454642	 0.000584
H	 -3.283566	 -2.233162	 1.740984
H	 -3.433286	 -1.897333	 0.008654
H	 -2.505502	 -3.290827	 0.586090
C	 -0.334255	 0.388708	 0.000906
C	 0.891947	 -0.504646	 0.000751
H	 -0.365390	 1.025305	 -0.873475
H	 -0.365484	 1.024911	 0.875569
C	 0.838286	 -1.556101	 -1.109219
H	 0.972990	 -0.989855	 0.969484
H	 1.777328	 0.114301	 -0.115286
C	 2.218456	 -1.897380	 -1.674006
H	 0.373149	 -2.463689	 -0.728406
H	 0.199349	 -1.201147	 -1.915971
C	 2.164936	 -2.948561	 -2.781716
H	 2.858134	 -2.252595	 -0.869202
H	 2.683758	 -0.991946	 -2.057088
H	 1.734871	 -3.878149	 -2.419883
H	 3.157562	 -3.169322	 -3.161444
H	 1.559486	 -2.607906	 -3.616818

13 9 8 10 F

2 4 8 10 F

19 15 12 16 F

1 2 4 8 F

