%nprocshared=1
%mem=2GB
#HF/6-31G* nosymm scf=tight 

Mol

0 1
H	 -0.389591	 -4.167094	 -1.070991
O	 -0.925034	 -3.804707	 -1.762631
C	 -1.816187	 -2.864069	 -1.225943
C	 -1.106250	 -1.906119	 -0.285736
H	 -2.323997	 -2.302436	 -2.005081
H	 -2.565518	 -3.418184	 -0.678303
O	 -0.043959	 -1.331029	 -0.978982
H	 -0.744628	 -2.443152	 0.593358
H	 -1.806342	 -1.148171	 0.060632
C	 -0.381609	 -0.813417	 -2.226865
H	 0.366496	 -0.106062	 -2.579876
H	 -0.435693	 -1.641239	 -2.920182
H	 -1.346371	 -0.311084	 -2.200645

8 4 3 5 F

1 2 3 5 F

10 7 4 8 F

