%nprocshared=1
%mem=2GB
#HF/6-31G* nosymm scf=tight 

Mol

0 1
H	 2.523244	 -0.320214	 -1.431116
O	 1.696503	 0.134608	 -1.358143
C	 1.371306	 0.310141	 -0.002193
C	 0.031547	 1.023609	 0.088541
H	 2.130841	 0.909113	 0.497035
H	 1.330000	 -0.649784	 0.507651
C	 -1.134819	 0.293262	 -0.585751
H	 0.143333	 2.004656	 -0.364602
H	 -0.193980	 1.185992	 1.141151
C	 -1.917817	 -0.639439	 0.339494
H	 -0.758119	 -0.268455	 -1.433105
H	 -1.813832	 1.041889	 -0.986690
H	 -2.777680	 -1.057197	 -0.174994
H	 -1.310268	 -1.471279	 0.680599
H	 -2.283753	 -0.111424	 1.216626

2 3 4 8 F

1 2 3 4 F

