%nprocshared=1
%mem=2GB
#HF/6-31G* nosymm scf=tight 

Mol

0 1
H	 2.073744	 -0.975211	 -0.644674
C	 1.265242	 -1.517834	 -1.149339
C	 -0.033502	 -0.763630	 -1.273345
O	 1.447760	 -2.620511	 -1.552972
C	 -0.558097	 -0.297372	 0.091132
H	 -0.750768	 -1.402325	 -1.775420
H	 0.145877	 0.104525	 -1.906559
C	 -1.850991	 0.512573	 -0.019058
H	 -0.728122	 -1.164478	 0.725160
H	 0.201564	 0.303770	 0.587521
C	 -3.096943	 -0.368295	 -0.099594
H	 -1.800724	 1.150330	 -0.898172
H	 -1.931651	 1.177355	 0.838044
H	 -3.060452	 -1.020287	 -0.967456
H	 -3.996858	 0.233488	 -0.175704
H	 -3.191959	 -0.995686	 0.782074

6 3 5 9 F

4 2 3 6 F

