%nprocshared=1
%mem=2GB
#HF/6-31G* nosymm scf=tight 

Mol

0 1
H	 -0.013643	 -3.612818	 -0.881656
O	 0.295734	 -2.784407	 -0.528376
C	 -0.720249	 -1.922353	 -0.544869
C	 -0.318135	 -0.576402	 0.000164
O	 -1.796484	 -2.221067	 -0.949201
C	 -1.454360	 0.441875	 -0.000474
H	 0.068477	 -0.735216	 1.003315
H	 0.525028	 -0.226671	 -0.589555
C	 -2.826123	 -0.230780	 0.000056
H	 -1.357605	 1.085198	 -0.868380
H	 -1.357504	 1.086451	 0.866496
H	 -2.959731	 -0.858053	 -0.876869
H	 -3.619374	 0.509403	 -0.000080
H	 -2.959371	 -0.857318	 0.877556

2 3 4 7 F

1 2 3 5 F

