%nprocshared=1
%mem=2GB
#HF/6-31G* nosymm scf=tight 
prop=(read,field)

Mol

0 1
H	 -1.560319	 -2.105964	 0.000000
C	 -1.053219	 -1.157873	 -0.000000
N	 0.264165	 -1.178756	 -0.000000
C	 -1.764965	 0.029676	 0.000000
C	 0.894075	 -0.015666	 -0.000000
H	 -2.839613	 0.034982	 0.000000
N	 -1.148361	 1.194636	 0.000000
C	 0.169171	 1.171734	 -0.000000
C	 2.398671	 -0.037268	 0.000000
H	 0.673146	 2.121416	 0.000000
H	 2.766147	 -0.561965	 -0.874879
H	 2.810612	 0.964817	 0.000000
H	 2.766147	 -0.561965	 0.874880

@grid.dat /N
