%nprocshared=1
%mem=2GB
#HF/6-31G* nosymm scf=tight 

Mol

0 1
H	 -0.000158	 1.970498	 0.756846
O	 -0.000074	 1.880206	 -0.189275
C	 -0.000015	 0.544847	 -0.545111
C	 0.783020	 0.352765	 -1.839694
C	 -1.432022	 0.023445	 -0.604218
H	 0.514039	 -0.003249	 0.230416
F	 2.024740	 0.753431	 -1.668983
F	 0.810199	 -0.905697	 -2.224265
F	 0.257505	 1.072144	 -2.818431
F	 -1.999659	 0.155365	 0.575580
F	 -1.486688	 -1.247272	 -0.942846
F	 -2.148511	 0.714222	 -1.476599

7 4 3 6 F

