%nprocshared=1
%mem=2GB
#HF/6-31G* nosymm scf=tight 

Mol

0 1
H	 -2.698709	 -0.000305	 0.034435
C	 -1.693833	 0.000034	 0.434417
O	 -0.828952	 -0.000968	 -0.659236
H	 -1.574200	 0.882896	 1.055746
H	 -1.574147	 -0.881698	 1.057355
C	 0.559449	 -0.000018	 -0.420814
C	 0.917969	 0.577417	 0.947012
C	 1.195153	 -1.368440	 -0.658007
H	 0.938662	 0.677438	 -1.176647
H	 0.409963	 1.523356	 1.100890
H	 1.987668	 0.751561	 1.007462
H	 0.650251	 -0.091748	 1.758621
H	 0.878442	 -1.769643	 -1.614661
H	 2.276936	 -1.278364	 -0.667900
H	 0.934630	 -2.082495	 0.116650

6 3 2 1 F

