%nprocshared=1
%mem=2GB
#HF/6-31G* nosymm scf=tight 

Mol

0 1
O	 -0.682937	 1.318834	 -0.186099
C	 -0.860635	 0.152188	 -0.042321
C	 -2.173363	 -0.477127	 0.338347
O	 0.083258	 -0.765189	 -0.202595
H	 -2.477673	 -1.180929	 -0.427595
H	 -2.923125	 0.290956	 0.455536
H	 -2.058825	 -1.029004	 1.264191
C	 0.723623	 -1.289369	 0.958424
C	 1.550694	 -0.230476	 1.663651
H	 1.329302	 -2.137445	 0.677244
H	 -0.088125	 -1.628231	 1.585909
H	 1.962810	 -0.637701	 2.581832
H	 2.371748	 0.097464	 1.038597
H	 0.936779	 0.627133	 1.916695

10 8 4 2 F

