%nprocshared=1
%mem=2GB
#HF/6-31G* nosymm scf=tight 

Mol

0 1
H	 2.453215	 -1.469276	 0.983212
N	 1.468891	 -1.290379	 1.004763
C	 0.806725	 -1.961988	 -0.098500
C	 1.212184	 0.138088	 0.987582
H	 1.010116	 -3.025707	 -0.036020
H	 1.154565	 -1.608641	 -1.072047
C	 -0.692422	 -1.722642	 0.000000
H	 1.709200	 0.595198	 1.836578
H	 1.584582	 0.618630	 0.079815
C	 -0.287214	 0.376133	 1.085409
H	 -1.072725	 -2.208290	 0.903667
H	 -1.189087	 -2.174717	 -0.852349
N	 -0.975995	 -0.298722	 0.000000
H	 -0.491252	 1.439723	 1.016905
H	 -0.640370	 0.031096	 2.061794
C	 -2.393863	 -0.024976	 0.000000
H	 -2.854032	 -0.467193	 -0.876721
H	 -2.854032	 -0.467193	 0.876721
H	 -2.623281	 1.044943	 0.000000
