%nprocshared=1
%mem=2GB
#HF/6-31G* nosymm scf=tight 

Mol

0 1
H	 -3.161837	 0.500524	 -0.000234
C	 -2.367097	 -0.232926	 -0.000000
O	 -1.158440	 0.455814	 -0.000122
H	 -2.468853	 -0.861886	 -0.882833
H	 -2.468942	 -0.861421	 0.883154
C	 -1.058687	 1.440634	 0.983775
C	 0.300233	 2.109559	 0.871797
H	 -1.182068	 0.997128	 1.972703
H	 -1.854304	 2.176601	 0.860266
C	 1.434795	 1.214778	 1.368807
H	 0.465117	 2.382409	 -0.166002
H	 0.276251	 3.034959	 1.439034
H	 1.491674	 0.292481	 0.797356
H	 2.392112	 1.716895	 1.277873
H	 1.301112	 0.949025	 2.413751

6 3 2 4 F

8 6 3 2 F

