%nprocshared=1
%mem=2GB
#HF/6-31G* nosymm scf=tight 

Mol

0 1
O	 -1.847476	 -0.127291	 -4.514145
C	 -2.561907	 -0.848989	 -3.887109
C	 -2.341460	 -1.062316	 -2.399762
C	 -3.734284	 -1.557897	 -4.527701
C	 -1.065390	 -1.881323	 -2.146749
H	 -3.199867	 -1.601477	 -2.014083
H	 -2.279860	 -0.109390	 -1.881917
C	 0.149006	 -1.302371	 -2.876593
H	 -0.889503	 -1.911557	 -1.077388
H	 -1.220214	 -2.909849	 -2.469101
C	 0.075323	 -1.399736	 -4.404711
H	 1.049327	 -1.804801	 -2.527720
H	 0.257663	 -0.255470	 -2.600840
C	 -1.053427	 -2.288511	 -4.930067
H	 1.023541	 -1.787350	 -4.768483
H	 -0.024340	 -0.400645	 -4.824201
H	 -0.984148	 -3.291584	 -4.518035
H	 -1.004790	 -2.372263	 -6.011279
H	 -2.032469	 -1.894716	 -4.678683
H	 -3.560431	 -2.630741	 -4.521010
H	 -3.858638	 -1.220784	 -5.547345
H	 -4.646153	 -1.377951	 -3.965634

6 3 2 1 F

6 3 5 8 F

3 5 8 12 F

