%nprocshared=1
%mem=2GB
#HF/6-31G* nosymm scf=tight 

Mol

0 1
O	 0.984144	 1.673199	 0.482560
C	 0.439177	 1.206683	 1.430408
C	 -0.839417	 0.405252	 1.402127
O	 0.898595	 1.335092	 2.668722
C	 -1.412532	 0.227344	 -0.000452
H	 -0.631262	 -0.554599	 1.867007
H	 -1.549198	 0.903018	 2.057256
C	 -2.706999	 -0.587347	 -0.000541
H	 -0.673088	 -0.256487	 -0.631035
H	 -1.591898	 1.203300	 -0.440726
C	 -3.956778	 0.291888	 0.000910
H	 -2.726114	 -1.239230	 -0.871609
H	 -2.725217	 -1.240844	 0.869333
H	 -3.985213	 0.933254	 -0.875158
H	 -4.860123	 -0.309979	 0.000519
H	 -3.984618	 0.931166	 0.878514
C	 2.098211	 2.068568	 2.836278
H	 2.907980	 1.601628	 2.294310
H	 2.303499	 2.060594	 3.895401
H	 1.975186	 3.083388	 2.486261

1 2 3 6 F

9 5 3 6 F

1 2 4 17 F

