%nprocshared=1
%mem=2GB
#HF/6-31G* nosymm scf=tight 

Mol

0 1
O	 -2.139678	 -2.048802	 -4.377626
C	 -2.007946	 -3.068974	 -3.772373
C	 -1.605577	 -3.058957	 -2.308029
C	 -2.264077	 -4.413091	 -4.416672
C	 -0.143132	 -2.614366	 -2.144513
H	 -1.721572	 -4.068202	 -1.928196
H	 -2.258498	 -2.405304	 -1.736662
C	 0.149006	 -1.302371	 -2.876593
H	 0.063456	 -2.514532	 -1.084919
H	 0.520292	 -3.390786	 -2.522382
C	 0.075323	 -1.399736	 -4.404711
H	 1.134522	 -0.942530	 -2.586767
H	 -0.561209	 -0.548755	 -2.542668
C	 -1.053427	 -2.288511	 -4.930067
H	 1.023541	 -1.787350	 -4.768483
H	 -0.024340	 -0.400645	 -4.824201
H	 -0.984148	 -3.291584	 -4.518035
H	 -1.004790	 -2.372263	 -6.011279
H	 -2.032469	 -1.894716	 -4.678683
H	 -1.333677	 -4.971397	 -4.479245
H	 -2.668229	 -4.276523	 -5.410047
H	 -2.951214	 -5.002456	 -3.816425

6 3 2 1 F

6 3 5 8 F

3 5 8 12 F

