%nprocshared=1
%mem=2GB
#HF/6-31G* nosymm scf=tight 

Mol

0 1
H	 -3.420663	 1.227371	 -1.044276
O	 -3.452007	 0.283848	 -0.965577
C	 -3.181085	 -0.079926	 0.364119
C	 -1.765924	 0.277073	 0.805136
H	 -3.327791	 -1.152017	 0.410903
H	 -3.905698	 0.375695	 1.036898
C	 -0.677594	 -0.417312	 -0.014550
H	 -1.637766	 1.358238	 0.744969
H	 -1.659588	 0.017670	 1.857098
C	 0.738335	 -0.034840	 0.421385
H	 -0.814977	 -0.178223	 -1.064632
H	 -0.802730	 -1.495410	 0.071702
C	 1.705417	 0.102134	 -0.757629
H	 0.696965	 0.898197	 0.978296
H	 1.119948	 -0.785896	 1.111957
C	 2.011464	 -1.208291	 -1.491984
H	 2.637666	 0.543504	 -0.408629
H	 1.285583	 0.807591	 -1.471692
C	 2.747022	 -1.035011	 -2.822147
H	 1.073442	 -1.725828	 -1.677887
H	 2.591855	 -1.858548	 -0.840436
H	 2.195541	 -0.378633	 -3.490110
H	 2.866585	 -1.990437	 -3.323847
H	 3.737465	 -0.613186	 -2.687051

20 16 13 17 F

17 13 10 7 F

11 7 4 3 F

1 2 3 5 F

7 4 3 2 F

