%nprocshared=1
%mem=2GB
#HF/6-31G* nosymm scf=tight 

Mol

0 1
H	 2.652209	 0.763231	 0.000000
O	 2.263154	 -0.100023	 0.000000
C	 0.912879	 -0.015685	 0.000000
C	 0.346790	 1.180296	 -0.421610
C	 0.102613	 -1.065770	 0.399841
H	 0.992930	 1.982008	 -0.727503
C	 -1.027856	 1.314630	 -0.439219
H	 0.542489	 -1.993213	 0.726765
C	 -1.276477	 -0.917071	 0.377115
H	 -1.461394	 2.242841	 -0.766566
C	 -1.850779	 0.269184	 -0.040777
H	 -1.898390	 -1.737167	 0.689136
H	 -2.919408	 0.381108	 -0.057188
