%nprocshared=1
%mem=2GB
#HF/6-31G* nosymm scf=tight 

Mol

0 1
H	 0.781139	 -0.407796	 2.321462
C	 -0.178995	 -0.448768	 1.825711
O	 0.000000	 0.000000	 0.521119
H	 -0.543437	 -1.474619	 1.848070
H	 -0.883459	 0.178268	 2.369995
C	 -1.165642	 0.000000	 -0.238270
H	 -1.228672	 0.883184	 -0.872070
H	 -2.003012	 0.000000	 0.445920
H	 -1.228672	 -0.883184	 -0.872070
