%nprocshared=1
%mem=2GB
#HF/6-31G* nosymm scf=tight 

Mol

0 1
H	 0.908565	 1.032553	 0.853546
N	 0.039557	 0.556305	 0.708677
C	 0.267169	 -0.832752	 0.351158
H	 -0.434287	 1.021080	 -0.041366
C	 0.861054	 -0.918115	 -1.039219
H	 0.927771	 -1.360779	 1.040210
H	 -0.686368	 -1.351931	 0.351921
O	 -0.088814	 -0.446451	 -1.951562
H	 1.768130	 -0.317035	 -1.098847
H	 1.119640	 -1.950582	 -1.263676
C	 0.295968	 -0.548357	 -3.285402
H	 1.077210	 -1.293847	 -3.345427
H	 -0.534823	 -0.858547	 -3.916710
H	 0.680852	 0.397273	 -3.661511

8 5 3 6 F

6 3 2 4 F

11 8 5 3 F

