%nprocshared=1
%mem=2GB
#HF/6-31G* nosymm scf=tight 

Mol

0 1
H	 -3.420663	 1.227371	 -1.044276
O	 -3.452007	 0.283848	 -0.965577
C	 -3.181085	 -0.079926	 0.364119
C	 -1.765924	 0.277073	 0.805136
H	 -3.327791	 -1.152017	 0.410903
H	 -3.905698	 0.375695	 1.036898
C	 -0.677594	 -0.417312	 -0.014550
H	 -1.637766	 1.358238	 0.744969
H	 -1.659588	 0.017670	 1.857098
C	 0.738335	 -0.034840	 0.421385
H	 -0.814977	 -0.178223	 -1.064632
H	 -0.802730	 -1.495410	 0.071702
C	 1.822265	 -0.738362	 -0.399735
H	 0.853533	 1.043532	 0.342250
H	 0.871597	 -0.279636	 1.474438
C	 1.744465	 -2.269355	 -0.386991
H	 2.802716	 -0.426391	 -0.043245
H	 1.753165	 -0.398193	 -1.430912
C	 2.642096	 -2.960276	 -1.415238
H	 0.713955	 -2.563158	 -0.571436
H	 1.989353	 -2.633585	 0.608785
H	 2.428148	 -2.606107	 -2.420190
H	 2.484886	 -4.034520	 -1.404181
H	 3.694649	 -2.784270	 -1.219491

20 16 13 17 F

13 10 7 11 F

11 7 4 3 F

1 2 3 5 F

7 4 3 2 F

