%nprocshared=1
%mem=2GB
#HF/6-31G* nosymm scf=tight 

Mol

0 1
H	 -1.836216	 1.387520	 -0.000064
C	 -1.301823	 0.443321	 -0.000031
O	 -0.003969	 0.658512	 0.000451
O	 -1.829879	 -0.616434	 -0.000857
C	 0.678865	 0.547850	 1.248921
C	 0.227827	 1.702569	 2.116970
H	 1.744466	 0.574264	 1.066944
H	 0.438886	 -0.407738	 1.694518
H	 0.469113	 2.651242	 1.651315
H	 0.726014	 1.655753	 3.079701
H	 -0.842783	 1.664631	 2.282021

7 5 3 2 F

