%nprocshared=1
%mem=2GB
#HF/6-31G* nosymm scf=tight 

Mol

0 1
H	 -2.240291	 0.559484	 0.604969
C	 -2.008299	 -0.205926	 -0.129530
O	 -0.774054	 0.001095	 -0.743181
H	 -2.752932	 -0.160639	 -0.912984
H	 -2.076115	 -1.178578	 0.348530
C	 -0.591187	 -0.377324	 -2.095915
C	 0.760246	 0.232353	 -2.461884
C	 -0.533005	 -1.901448	 -2.240305
C	 -1.688805	 0.211463	 -2.987925
H	 1.535336	 -0.162318	 -1.814658
H	 0.731051	 1.308579	 -2.334370
H	 1.022575	 0.012006	 -3.491588
H	 0.196839	 -2.316073	 -1.552960
H	 -0.243224	 -2.172651	 -3.250294
H	 -1.491889	 -2.368180	 -2.042165
H	 -1.770649	 1.281125	 -2.826133
H	 -1.454665	 0.041517	 -4.033789
H	 -2.657223	 -0.237807	 -2.795691

2 3 6 7 F

