%nprocshared=1
%mem=2GB
#HF/6-31G* nosymm scf=tight 

Mol

0 1
H	 2.332609	 0.878551	 -1.051851
C	 2.357710	 0.000000	 -0.417167
C	 1.175432	 0.000000	 0.532082
H	 3.291263	 0.000000	 0.136880
H	 2.332609	 -0.878551	 -1.051851
O	 0.000000	 0.000000	 -0.221444
H	 1.206604	 0.877321	 1.177902
H	 1.206604	 -0.877321	 1.177902
C	 -1.175432	 0.000000	 0.532082
C	 -0.857882	 0.514735	 1.922429
H	 -1.586856	 -1.007822	 0.584744
H	 -1.926010	 0.630424	 0.055694
H	 -0.119501	 -0.119022	 2.400396
H	 -1.752410	 0.528128	 2.537350
H	 -0.459131	 1.521521	 1.870604
