%nprocshared=1
%mem=2GB
#HF/6-31G* nosymm scf=tight 
prop=(read,field)

Mol

0 1
O	 2.862491	 1.357418	 0.000267
C	 2.843630	 0.164773	 -0.000222
C	 1.546660	 -0.624408	 -0.000609
C	 4.124289	 -0.644590	 -0.000428
C	 0.291170	 0.242758	 0.000989
H	 1.558070	 -1.283674	 -0.867573
H	 1.558788	 -1.285879	 0.864672
C	 -0.994156	 -0.586518	 0.000262
H	 0.309283	 0.896514	 -0.865270
H	 0.309827	 0.894162	 0.869017
C	 -2.259708	 0.272615	 0.000494
H	 -1.004696	 -1.239928	 -0.870939
H	 -1.005054	 -1.240987	 0.870675
C	 -3.549620	 -0.549662	 -0.000374
H	 -2.250223	 0.926764	 -0.869574
H	 -2.250672	 0.925597	 0.871430
C	 -4.809424	 0.315542	 -0.000369
H	 -3.560349	 -1.201925	 -0.871156
H	 -3.560957	 -1.202871	 0.869711
H	 -4.844580	 0.956695	 -0.876632
H	 -5.706820	 -0.295506	 -0.001609
H	 -4.845794	 0.954911	 0.877144
H	 4.165533	 -1.288531	 -0.874074
H	 4.976383	 0.020818	 -0.001915
H	 4.166929	 -1.286123	 0.874930

@grid.dat /N
