%nprocshared=1
%mem=2GB
#HF/6-31G* nosymm scf=tight 

Mol

0 1
H	 1.244419	 -2.264759	 -0.354766
C	 0.280727	 -1.787228	 -0.427687
O	 0.464886	 -0.454746	 -0.000158
H	 -0.425326	 -2.306582	 0.209327
H	 -0.059689	 -1.822928	 -1.455746
C	 -0.590998	 0.343045	 0.000118
O	 -1.699443	 -0.054298	 0.000227
H	 -0.340329	 1.404368	 0.000207
