%nprocshared=1
%mem=2GB
#HF/6-31G* nosymm scf=tight 

Mol

0 1
O	 -1.487788	 1.240889	 -0.102860
C	 -1.083277	 0.139568	 0.115197
C	 0.323299	 -0.082943	 0.642902
C	 -1.933017	 -1.084621	 -0.143902
C	 1.355627	 -0.005344	 -0.493127
H	 0.396251	 -1.044647	 1.143147
H	 0.528637	 0.693580	 1.371677
C	 0.702516	 -0.018717	 -1.873893
H	 1.952952	 0.897356	 -0.385390
H	 2.037580	 -0.843822	 -0.398073
H	 1.451348	 0.030852	 -2.657784
H	 0.032471	 0.826658	 -2.001195
H	 0.124726	 -0.925794	 -2.023610
H	 -1.393885	 -1.806447	 -0.750509
H	 -2.850323	 -0.799888	 -0.640100
H	 -2.169004	 -1.571158	 0.798858

4 2 3 5 F

