%nprocshared=1
%mem=2GB
#HF/6-31G* nosymm scf=tight 

Mol

0 1
O	 0.802994	 1.961125	 -0.391990
C	 -0.098254	 2.060893	 -1.160652
C	 -1.366591	 1.243159	 -1.137708
O	 -0.103723	 2.928208	 -2.164997
C	 -1.412532	 0.227344	 -0.000452
H	 -2.199867	 1.938088	 -1.078728
H	 -1.456274	 0.755825	 -2.104774
C	 -2.706999	 -0.587347	 -0.000541
H	 -1.303702	 0.745327	 0.947363
H	 -0.558711	 -0.438376	 -0.079887
C	 -3.956778	 0.291888	 0.000910
H	 -2.726114	 -1.239230	 -0.871609
H	 -2.725217	 -1.240844	 0.869333
H	 -3.985213	 0.933254	 -0.875158
H	 -4.860123	 -0.309979	 0.000519
H	 -3.984618	 0.931166	 0.878514
C	 1.033203	 3.761325	 -2.300846
H	 1.165743	 4.370283	 -1.418185
H	 0.841124	 4.384941	 -3.160007
H	 1.922202	 3.168116	 -2.459879

1 2 3 6 F

9 5 3 6 F

1 2 4 17 F

