%nprocshared=1
%mem=2GB
#HF/6-31G* nosymm scf=tight 

Mol

0 1
H	 1.249935	 -1.972232	 -2.438460
C	 1.254847	 -1.107127	 -1.781340
C	 0.064120	 -1.156619	 -0.829058
H	 1.208089	 -0.211030	 -2.390098
H	 2.202866	 -1.102457	 -1.254299
N	 -0.000257	 -0.000071	 0.054619
H	 -0.840219	 -1.182662	 -1.423927
H	 0.078556	 -2.089398	 -0.257743
C	 -1.363055	 0.315058	 0.462241
C	 0.908831	 -0.112776	 1.187542
C	 -2.412078	 -0.285320	 -0.468531
H	 -1.482241	 1.391144	 0.451970
H	 -1.549931	 -0.001174	 1.492681
C	 1.380494	 1.242933	 1.704097
H	 1.780003	 -0.672639	 0.871684
H	 0.456695	 -0.688141	 2.000755
H	 -2.262839	 0.075384	 -1.480151
H	 -2.369300	 -1.368867	 -0.491760
H	 -3.410332	 -0.003975	 -0.144961
H	 1.881785	 1.789291	 0.912999
H	 0.559640	 1.854663	 2.062615
H	 2.075922	 1.112589	 2.528546
