%nprocshared=1
%mem=2GB
#HF/6-31G* nosymm scf=tight 

Mol

0 1
O	 1.825465	 1.324323	 -0.951462
C	 0.788116	 1.716284	 -1.379704
C	 -0.516134	 0.957269	 -1.353318
O	 0.640172	 2.906476	 -1.947763
C	 -0.823008	 0.326187	 0.001381
H	 -1.299814	 1.647936	 -1.652547
H	 -0.470175	 0.205508	 -2.136556
C	 0.434747	 -0.198454	 0.695545
H	 -1.534382	 -0.482436	 -0.133767
H	 -1.315336	 1.058372	 0.633701
C	 0.974038	 -1.483221	 0.064357
H	 1.210128	 0.565828	 0.669970
H	 0.221000	 -0.378996	 1.747970
C	 1.220329	 -1.351980	 -1.438097
H	 0.272739	 -2.294574	 0.246091
H	 1.900784	 -1.764950	 0.559239
H	 0.303592	 -1.104412	 -1.965845
H	 1.602271	 -2.278195	 -1.856063
H	 1.944294	 -0.570199	 -1.650237
C	 1.792514	 3.724689	 -2.034891
H	 2.180449	 3.940881	 -1.049855
H	 1.472688	 4.634305	 -2.518819
H	 2.560106	 3.239076	 -2.620117

15 11 8 12 F

9 5 8 12 F

1 2 3 6 F

1 2 4 20 F

