%nprocshared=1
%mem=2GB
#HF/6-31G* nosymm scf=tight 

Mol

0 1
O	 -2.042549	 -1.228399	 -0.269030
C	 -1.653912	 -0.146171	 0.050137
C	 -0.332303	 0.024011	 0.778412
C	 -2.438579	 1.106236	 -0.272369
C	 0.728985	 -0.938534	 0.222494
H	 0.018792	 1.048899	 0.696436
H	 -0.504321	 -0.192175	 1.827028
C	 0.419438	 -2.402553	 0.538501
H	 1.706211	 -0.683114	 0.628541
H	 0.792857	 -0.799849	 -0.852600
C	 -1.026676	 -2.782467	 0.222867
H	 1.093535	 -3.044392	 -0.024581
H	 0.622256	 -2.592153	 1.589922
H	 -1.250479	 -2.635809	 -0.829965
H	 -1.724132	 -2.178891	 0.796186
H	 -1.218123	 -3.824291	 0.459463
H	 -3.277823	 0.863061	 -0.908988
H	 -1.806773	 1.843019	 -0.759671
H	 -2.802853	 1.554979	 0.648059

11 8 5 9 F

9 5 3 2 F

