%nprocshared=1
%mem=2GB
#HF/6-31G* nosymm scf=tight 

Mol

0 1
H	 1.088460	 0.702114	 1.600208
C	 1.153381	 0.359165	 0.560076
C	 0.065331	 0.871482	 -0.349150
O	 2.037640	 -0.358977	 0.222324
C	 -1.339775	 0.583656	 0.198860
H	 0.205450	 0.433462	 -1.330689
H	 0.201563	 1.948239	 -0.439681
C	 -1.808407	 -0.848507	 -0.061364
H	 -2.036183	 1.280685	 -0.256307
H	 -1.360094	 0.788874	 1.267089
H	 -1.828843	 -1.063152	 -1.125336
H	 -2.808409	 -1.004529	 0.329750
H	 -1.153967	 -1.577789	 0.406873

6 3 2 4 F

