%nprocshared=1
%mem=2GB
#HF/6-31G* nosymm scf=tight 

Mol

0 1
H	 -0.341799	 -1.244830	 0.756851
N	 -0.626943	 -0.667432	 -0.000092
C	 -1.979713	 -0.158776	 0.000050
C	 0.271647	 -0.396258	 -0.977418
H	 -2.520245	 -0.492427	 -0.879443
H	 -1.934741	 0.918111	 -0.004428
H	 -2.517790	 -0.485056	 0.883818
C	 1.632038	 -1.033287	 -0.776130
O	 0.020872	 0.290499	 -1.929096
H	 1.546110	 -2.114655	 -0.735962
H	 2.272644	 -0.756402	 -1.599935
H	 2.078556	 -0.697571	 0.154596

3 2 4 9 F

