%nprocshared=1
%mem=2GB
#HF/6-31G* nosymm scf=tight 

Mol

0 1
H	 -3.420663	 1.227371	 -1.044276
O	 -3.452007	 0.283848	 -0.965577
C	 -3.181085	 -0.079926	 0.364119
C	 -1.765924	 0.277073	 0.805136
H	 -3.327791	 -1.152017	 0.410903
H	 -3.905698	 0.375695	 1.036898
C	 -0.677594	 -0.417312	 -0.014550
H	 -1.637766	 1.358238	 0.744969
H	 -1.659588	 0.017670	 1.857098
C	 -1.195769	 -1.623136	 -0.801100
H	 0.123771	 -0.728953	 0.648325
H	 -0.240209	 0.302478	 -0.704470
C	 -2.481524	 -1.318847	 -1.574616
H	 -0.420557	 -1.958150	 -1.486104
H	 -1.377148	 -2.451076	 -0.116831
C	 -3.707891	 -1.042368	 -0.697268
H	 -2.701186	 -2.146768	 -2.246919
H	 -2.308882	 -0.451885	 -2.208956
C	 -4.912127	 -0.472276	 -1.449076
H	 -3.421629	 -0.341851	 0.083514
H	 -4.000431	 -1.959026	 -0.188977
H	 -4.645943	 0.439129	 -1.977873
H	 -5.716928	 -0.230970	 -0.761396
H	 -5.306409	 -1.173843	 -2.176750

20 16 13 17 F

17 13 10 7 F

13 10 7 11 F

1 2 3 5 F

7 4 3 2 F

