%nprocshared=1
%mem=2GB
#HF/6-31G* nosymm scf=tight 

Mol

0 1
H	 -3.572414	 0.552595	 -0.000000
O	 -3.106097	 -0.272125	 0.000000
C	 -1.775806	 -0.076183	 0.000000
C	 -1.213894	 1.197102	 -0.000000
C	 -0.964386	 -1.203864	 0.000000
H	 -1.849936	 2.065872	 -0.000000
C	 0.157995	 1.337606	 -0.000000
H	 -1.421544	 -2.175088	 0.000000
C	 0.405958	 -1.047043	 0.000000
H	 0.605090	 2.313929	 -0.000000
C	 0.984182	 0.218375	 0.000000
H	 1.035209	 -1.920602	 0.000000
C	 2.452467	 0.370529	 0.000000
O	 3.228994	 -0.533774	 0.000000
H	 2.809473	 1.405765	 0.000000

5 3 2 1 F

