%nprocshared=1
%mem=2GB
#HF/6-31G* nosymm scf=tight 

Mol

0 1
H	 0.150990	 -5.595266	 2.412617
C	 0.444597	 -4.712302	 1.854118
C	 -0.735248	 -3.758271	 1.673136
H	 1.256127	 -4.234586	 2.395813
H	 0.836497	 -5.043018	 0.896367
C	 -0.364941	 -2.502383	 0.890821
H	 -1.127855	 -3.459953	 2.640222
H	 -1.541872	 -4.277123	 1.157829
N	 -1.499838	 -1.609239	 0.765288
H	 0.422232	 -1.970492	 1.418470
H	 0.051655	 -2.786051	 -0.081475
C	 -1.217365	 -0.386708	 0.039277
H	 -2.256727	 -2.093253	 0.320440
C	 -2.452633	 0.504241	 -0.042481
H	 -0.428797	 0.141646	 0.568391
H	 -0.837335	 -0.579449	 -0.969589
C	 -3.758029	 -0.289423	 -0.010781
H	 -2.394220	 1.093569	 -0.952170
H	 -2.440793	 1.210787	 0.785871
H	 -3.816659	 -0.981993	 -0.845726
H	 -4.617837	 0.370165	 -0.069296
H	 -3.847478	 -0.867502	 0.904682

10 6 9 12 F

