%nprocshared=1
%mem=2GB
#HF/6-31G* nosymm scf=tight 

Mol

0 1
H	 2.337707	 -5.358702	 -2.099449
C	 2.239864	 -4.377536	 -1.671885
C	 1.050301	 -3.987241	 -1.066218
C	 3.291695	 -3.485777	 -1.715127
H	 0.219758	 -4.669285	 -1.023276
C	 0.921141	 -2.729957	 -0.516898
H	 4.219325	 -3.770254	 -2.179519
C	 3.177540	 -2.213275	 -1.165431
H	 0.008162	 -2.415711	 -0.046204
C	 1.987526	 -1.834524	 -0.564188
H	 4.013296	 -1.542654	 -1.214893
O	 1.765256	 -0.628444	 0.000000
C	 2.778419	 0.335181	 0.000000
H	 2.731280	 0.961222	 -0.884976
H	 3.711703	 -0.207767	 0.000000
H	 2.731280	 0.961222	 0.884976

13 12 10 8 F

