%nprocshared=1
%mem=2GB
#HF/6-31G* nosymm scf=tight 

Mol

0 1
H	 -3.161837	 0.500524	 -0.000234
C	 -2.367097	 -0.232926	 -0.000000
O	 -1.158440	 0.455814	 -0.000122
H	 -2.468853	 -0.861886	 -0.882833
H	 -2.468942	 -0.861421	 0.883154
C	 -0.437198	 0.350032	 1.190043
C	 0.851086	 1.142909	 1.054650
H	 -0.216899	 -0.696731	 1.403714
H	 -1.029908	 0.730090	 2.023205
C	 1.709431	 1.083330	 2.317415
H	 1.405929	 0.755759	 0.205577
H	 0.598673	 2.172616	 0.820790
H	 1.993741	 0.062147	 2.555696
H	 2.621409	 1.657524	 2.193144
H	 1.180448	 1.488472	 3.175577

11 7 6 8 F

8 6 3 2 F

