%nprocshared=1
%mem=2GB
#HF/6-31G* nosymm scf=tight 

Mol

0 1
H	 -1.650173	 1.202007	 2.895070
C	 -2.554237	 1.576875	 2.399325
C	 -3.501929	 0.510918	 1.911240
O	 -2.728310	 2.746073	 2.279223
C	 -3.991807	 0.769522	 0.479668
H	 -3.008572	 -0.450382	 1.996146
H	 -4.356225	 0.508628	 2.587132
C	 -4.902224	 1.994114	 0.357958
H	 -3.125436	 0.898892	 -0.162165
H	 -4.512329	 -0.113030	 0.111000
C	 -6.253274	 1.803461	 1.050150
H	 -5.061777	 2.215687	 -0.695273
H	 -4.404847	 2.866866	 0.776836
C	 -7.144331	 3.045428	 0.963640
H	 -6.759475	 0.950440	 0.605350
H	 -6.089580	 1.551128	 2.097010
C	 -8.476090	 2.930578	 1.714174
H	 -7.340708	 3.275648	 -0.082366
H	 -6.595566	 3.895780	 1.362978
C	 -9.441535	 1.892099	 1.140506
H	 -8.962502	 3.902772	 1.700334
H	 -8.281521	 2.704290	 2.760528
H	 -9.641833	 2.084110	 0.089658
H	 -9.050397	 0.883621	 1.223924
H	 -10.390864	 1.916855	 1.666962

6 3 5 8 F

6 3 2 4 F

3 5 8 12 F

8 11 14 18 F

20 17 14 18 F

