%nprocshared=1
%mem=2GB
#HF/6-31G* nosymm scf=tight 

Mol

0 1
H	 -0.821032	 -1.655889	 0.000000
O	 -1.037828	 -0.728600	 0.000000
C	 0.100509	 -0.036935	 0.000000
C	 0.703975	 0.046480	 1.372871
O	 0.553253	 0.441883	 -0.987410
H	 0.003724	 0.520869	 2.050602
H	 1.621874	 0.612903	 1.330715
H	 0.898682	 -0.952046	 1.746704
