%nprocshared=1
%mem=2GB
#HF/6-31G* nosymm scf=tight 

Mol

0 1
O	 -0.682937	 1.318834	 -0.186099
C	 -0.860635	 0.152188	 -0.042321
C	 -2.173363	 -0.477127	 0.338347
O	 0.083258	 -0.765189	 -0.202595
H	 -2.477673	 -1.180929	 -0.427595
H	 -2.923125	 0.290956	 0.455536
H	 -2.058825	 -1.029004	 1.264191
C	 1.243796	 -0.695505	 0.622688
C	 2.070569	 0.539685	 0.317076
H	 1.823802	 -1.597029	 0.496245
H	 0.857519	 -0.663180	 1.631273
H	 2.903532	 0.604759	 1.010378
H	 2.468218	 0.498581	 -0.689181
H	 1.469493	 1.436465	 0.421523

10 8 4 2 F

