%nprocshared=1
%mem=2GB
#HF/6-31G* nosymm scf=tight 

Mol

0 1
H	 -1.810395	 -0.051506	 -2.225741
C	 -1.304871	 -0.060995	 -1.280351
C	 -1.944758	 0.393825	 -0.079847
C	 -0.044196	 -0.502103	 -1.182679
H	 -2.957238	 0.754160	 -0.125533
C	 -1.292112	 0.372390	 1.091074
H	 0.504758	 -0.859179	 -2.033297
N	 0.640212	 -0.532897	 -0.000111
H	 -1.738099	 0.704242	 2.008312
C	 0.079694	 -0.107700	 1.197096
C	 2.010177	 -1.032049	 0.000042
O	 0.700628	 -0.143153	 2.230242
H	 2.187698	 -1.635381	 -0.882279
H	 2.677579	 -0.189247	 -0.001871
H	 2.188882	 -1.632203	 0.884288
