%nprocshared=1
%mem=2GB
#HF/6-31G* nosymm scf=tight 

Mol

0 1
H	 -2.798360	 -0.862255	 -0.071053
N	 -1.863561	 -0.715187	 0.256814
C	 -1.344686	 0.554728	 -0.219830
H	 -1.300452	 -1.461917	 -0.101532
C	 0.081427	 0.741154	 0.254071
H	 -1.362155	 0.656231	 -1.305829
H	 -1.952773	 1.354456	 0.191809
O	 0.353613	 2.112713	 0.296825
H	 0.209766	 0.303016	 1.243617
H	 0.762813	 0.242478	 -0.431691
C	 1.666162	 2.427359	 0.637095
H	 1.755192	 3.505212	 0.638989
H	 1.921733	 2.052040	 1.626439
H	 2.372538	 2.016150	 -0.081063

6 3 2 4 F

5 8 11 13 F

11 8 5 3 F

