%nprocshared=1
%mem=2GB
#HF/6-31G* nosymm scf=tight 

Mol

0 1
O	 1.193023	 1.330472	 -0.955394
C	 0.140502	 1.681556	 -1.381988
C	 -1.132561	 0.871331	 -1.354793
O	 -0.054281	 2.863688	 -1.952602
C	 -1.412532	 0.227344	 -0.000452
H	 -1.943418	 1.530676	 -1.652331
H	 -1.057793	 0.122680	 -2.138812
C	 -1.406650	 -1.300523	 -0.070846
H	 -2.371797	 0.575031	 0.370262
H	 -0.671517	 0.565542	 0.717198
C	 -2.651816	 -1.863857	 -0.754381
H	 -0.519708	 -1.636372	 -0.604339
H	 -1.330856	 -1.710384	 0.934311
H	 -2.737439	 -1.499366	 -1.773924
H	 -2.622541	 -2.948313	 -0.791450
H	 -3.554315	 -1.574430	 -0.223941
C	 1.065166	 3.726192	 -2.042424
H	 1.444631	 3.960080	 -1.058153
H	 0.709774	 4.621320	 -2.528624
H	 1.850932	 3.269393	 -2.626729

9 5 8 12 F

1 2 3 6 F

1 2 4 17 F

