%nprocshared=1
%mem=2GB
#HF/6-31G* nosymm scf=tight 

Mol

0 1
H	 -3.161837	 0.500524	 -0.000234
C	 -2.367097	 -0.232926	 -0.000000
O	 -1.158440	 0.455814	 -0.000122
H	 -2.468853	 -0.861886	 -0.882833
H	 -2.468942	 -0.861421	 0.883154
C	 -1.058687	 1.440634	 0.983775
C	 -1.598082	 2.746532	 0.426688
H	 -0.018831	 1.560694	 1.290672
H	 -1.622870	 1.145032	 1.869339
C	 -0.651808	 3.383275	 -0.590172
H	 -2.563934	 2.553176	 -0.029826
H	 -1.773236	 3.427499	 1.253915
H	 -0.482295	 2.726868	 -1.439183
H	 -1.061095	 4.313094	 -0.970654
H	 0.314411	 3.606803	 -0.146482

6 3 2 4 F

11 7 6 8 F

