%nprocshared=1
%mem=2GB
#HF/6-31G* nosymm scf=tight 

Mol

0 1
O	 -1.364788	 -1.390379	 1.812041
C	 -0.451170	 -1.129930	 1.097049
C	 0.801727	 -1.959116	 0.945507
O	 -0.412224	 -0.053084	 0.324720
C	 1.124911	 -2.785238	 2.184071
H	 1.613075	 -1.280220	 0.700432
H	 0.669725	 -2.590969	 0.072237
H	 1.272053	 -2.149836	 3.048928
H	 2.030738	 -3.360307	 2.024106
H	 0.320287	 -3.472711	 2.414906
C	 -1.531453	 0.826181	 0.364993
C	 -2.700545	 0.101934	 -0.268253
H	 -1.286269	 1.733621	 -0.169816
H	 -1.734904	 1.091114	 1.393589
H	 -2.478937	 -0.161257	 -1.296251
H	 -3.578946	 0.739088	 -0.258532
H	 -2.930154	 -0.807282	 0.275679

2 4 11 13 F

11 4 2 3 F

