%nprocshared=1
%mem=2GB
#HF/6-31G* nosymm scf=tight 

Mol

0 1
H	 -0.036186	 2.588896	 -0.166736
C	 0.843917	 1.945308	 -0.205465
N	 0.538815	 0.649616	 0.000000
O	 1.937964	 2.381722	 -0.409949
C	 1.521968	 -0.411503	 0.000000
H	 -0.414814	 0.418373	 0.159379
H	 2.150599	 -0.357004	 -0.881901
H	 0.999455	 -1.354525	 0.000000
H	 2.150599	 -0.357004	 0.881901

1 2 3 6 F

