%nprocshared=1
%mem=2GB
#HF/6-31G* nosymm scf=tight 

Mol

0 1
H	 -3.570397	 -0.139454	 -2.626659
N	 -3.187910	 0.213855	 -1.770843
C	 -2.675820	 -0.872067	 -0.947398
H	 -3.930673	 0.692876	 -1.297902
C	 -2.007404	 -0.323850	 0.308959
H	 -1.942315	 -1.414461	 -1.536159
H	 -3.445004	 -1.594455	 -0.662950
C	 -0.679275	 0.379305	 0.025956
H	 -2.698080	 0.359552	 0.794513
H	 -1.839986	 -1.142063	 1.008841
C	 -0.791153	 1.473151	 -1.037697
H	 0.057204	 -0.356112	 -0.294370
H	 -0.293844	 0.814572	 0.946734
C	 -2.115055	 2.234023	 -0.975523
H	 0.033362	 2.173024	 -0.921214
H	 -0.676491	 1.028719	 -2.024099
H	 -2.243718	 2.718807	 -0.011807
H	 -2.163946	 3.002377	 -1.740928
H	 -2.958889	 1.565841	 -1.123406

6 3 5 9 F

12 8 5 9 F

1 2 3 6 F

