%nprocshared=1
%mem=2GB
#HF/6-31G* nosymm scf=tight 

Mol

0 1
H	 -2.258317	 -0.920211	 0.781428
O	 -2.347518	 -0.290803	 0.079804
C	 -1.184022	 0.487508	 -0.006784
C	 0.062599	 -0.378592	 0.031606
H	 -1.176523	 1.099369	 -0.904519
H	 -1.187323	 1.153111	 0.844927
O	 -0.043959	 -1.331029	 -0.978982
H	 0.152937	 -0.862108	 1.006301
H	 0.944499	 0.244194	 -0.106143
C	 -0.448442	 -2.590776	 -0.544730
H	 -1.432990	 -2.554998	 -0.082112
H	 -0.491566	 -3.236596	 -1.410732
H	 0.255006	 -3.008382	 0.172597

8 4 3 5 F

1 2 3 5 F

4 7 10 13 F

