%nprocshared=1
%mem=2GB
#HF/6-31G* nosymm scf=tight 

Mol

0 1
H	 1.129474	 -0.344499	 1.155665
C	 1.071922	 -0.167955	 0.074358
C	 0.065331	 0.871482	 -0.349150
O	 1.775386	 -0.773173	 -0.667644
C	 -1.339775	 0.583656	 0.198860
H	 0.065117	 0.926217	 -1.431701
H	 0.410976	 1.830105	 0.035210
C	 -1.808407	 -0.848507	 -0.061364
H	 -2.036183	 1.280685	 -0.256307
H	 -1.360094	 0.788874	 1.267089
H	 -1.828843	 -1.063152	 -1.125336
H	 -2.808409	 -1.004529	 0.329750
H	 -1.153967	 -1.577789	 0.406873

6 3 2 4 F

