%nprocshared=1
%mem=2GB
#HF/6-31G* nosymm scf=tight 

Mol

0 1
H	 3.128358	 -2.107430	 0.298459
C	 2.298357	 -2.593567	 -0.204056
C	 1.064137	 -1.692886	 -0.224940
H	 2.621732	 -2.839700	 -1.211564
H	 2.098677	 -3.526362	 0.315818
C	 -0.127859	 -2.340084	 -0.922563
H	 1.291482	 -0.757008	 -0.725776
H	 0.787035	 -1.438320	 0.796726
N	 -1.268658	 -1.446027	 -0.948991
H	 0.140067	 -2.570552	 -1.950212
H	 -0.358918	 -3.296365	 -0.441402
C	 -1.217365	 -0.386708	 0.039277
H	 -1.355622	 -1.044301	 -1.863373
C	 -2.452633	 0.504241	 -0.042481
H	 -1.172857	 -0.848333	 1.022069
H	 -0.315698	 0.227728	 -0.054795
C	 -3.758029	 -0.289423	 -0.010781
H	 -2.394220	 1.093569	 -0.952170
H	 -2.440793	 1.210787	 0.785871
H	 -3.816659	 -0.981993	 -0.845726
H	 -4.617837	 0.370165	 -0.069296
H	 -3.847478	 -0.867502	 0.904682

15 12 14 18 F

