%nprocshared=1
%mem=2GB
#HF/6-31G* nosymm scf=tight 

Mol

0 1
H	 -2.240291	 0.559484	 0.604969
C	 -2.008299	 -0.205926	 -0.129530
O	 -0.774054	 0.001095	 -0.743181
H	 -2.752932	 -0.160639	 -0.912984
H	 -2.076115	 -1.178578	 0.348530
C	 0.132785	 -1.078910	 -0.876465
C	 1.216473	 -0.528475	 -1.800940
C	 0.743395	 -1.457919	 0.476567
C	 -0.542471	 -2.290797	 -1.526446
H	 1.678337	 0.345530	 -1.355712
H	 0.783101	 -0.233496	 -2.749913
H	 1.985928	 -1.270818	 -1.986754
H	 1.155775	 -0.579459	 0.961625
H	 1.542692	 -2.179005	 0.339602
H	 0.014400	 -1.905349	 1.143595
H	 -1.033024	 -1.997585	 -2.448638
H	 0.195018	 -3.051973	 -1.759373
H	 -1.282208	 -2.744878	 -0.875884

2 3 6 7 F

