%nprocshared=1
%mem=2GB
#HF/6-31G* nosymm scf=tight 

Mol

0 1
H	 -2.646374	 -0.642757	 1.268656
C	 -2.083525	 -0.384536	 0.393091
O	 -0.807605	 -0.127164	 0.768327
F	 -2.118945	 -1.383102	 -0.486752
F	 -2.621877	 0.670592	 -0.209486
C	 -0.094747	 -1.146850	 1.372281
C	 -0.219979	 -2.370039	 0.473234
Cl	 -0.732973	 -1.492226	 2.988015
H	 0.949540	 -0.909898	 1.477598
F	 -1.454808	 -2.825204	 0.485933
F	 0.570539	 -3.318518	 0.934654
F	 0.121756	 -2.110787	 -0.765305

10 7 6 9 F

9 6 3 2 F

