%nprocshared=1
%mem=2GB
#HF/6-31G* nosymm scf=tight 

Mol

0 1
O	 1.193023	 1.330472	 -0.955394
C	 0.140502	 1.681556	 -1.381988
C	 -1.132561	 0.871331	 -1.354793
O	 -0.054281	 2.863688	 -1.952602
C	 -1.412532	 0.227344	 -0.000452
H	 -1.943418	 1.530676	 -1.652331
H	 -1.057793	 0.122680	 -2.138812
C	 -2.323957	 -0.995540	 -0.115453
H	 -1.863764	 0.961962	 0.659268
H	 -0.472549	 -0.056485	 0.462556
C	 -3.778711	 -0.622024	 -0.396844
H	 -1.959692	 -1.647163	 -0.907145
H	 -2.272185	 -1.575177	 0.804009
H	 -3.868157	 -0.070645	 -1.328313
H	 -4.403194	 -1.506528	 -0.473982
H	 -4.183060	 0.001326	 0.395354
C	 1.065166	 3.726192	 -2.042424
H	 1.444631	 3.960080	 -1.058153
H	 0.709774	 4.621320	 -2.528624
H	 1.850932	 3.269393	 -2.626729

9 5 8 12 F

1 2 3 6 F

1 2 4 17 F

