%nprocshared=1
%mem=2GB
#HF/6-31G* nosymm scf=tight 

Mol

0 1
H	 -1.988595	 1.669378	 -1.305470
C	 -0.978421	 1.279402	 -1.351194
C	 -0.603454	 0.661669	 0.000000
H	 -0.309057	 2.092313	 -1.605298
H	 -0.932484	 0.540325	 -2.141824
C	 0.763625	 0.112519	 0.000000
H	 -0.665025	 1.400899	 0.790138
H	 -1.284502	 -0.141255	 0.257013
N	 1.813038	 -0.320305	 0.000000
