%nprocshared=1
%mem=2GB
#HF/6-31G* nosymm scf=tight 

Mol

0 1
H	 3.302195	 -0.416198	 0.013499
C	 2.241793	 -0.237422	 0.010597
C	 1.409818	 -1.034133	 -0.766531
C	 1.713983	 0.785123	 0.781179
H	 1.827067	 -1.825889	 -1.361974
C	 0.047555	 -0.807272	 -0.772580
H	 2.360658	 1.399319	 1.381030
C	 0.347169	 1.011700	 0.774247
H	 -0.612457	 -1.411590	 -1.366159
C	 -0.488460	 0.219100	 0.000000
H	 -0.069089	 1.805042	 1.371143
C	 -1.949954	 0.470334	 0.000000
O	 -2.781584	 -0.381627	 0.000000
H	 -2.238022	 1.526388	 0.000000
