%nprocshared=1
%mem=2GB
#HF/6-31G* nosymm scf=tight 

Mol

0 1
H	 -1.951600	 1.456871	 -0.724495
C	 -1.216862	 1.399395	 0.071870
N	 -0.528168	 0.128977	 -0.000000
H	 -1.745849	 1.474330	 1.015053
H	 -0.557050	 2.266129	 -0.021334
C	 0.248044	 -0.037491	 -1.209632
H	 0.063522	 0.019325	 0.799317
H	 0.998722	 0.743888	 -1.266824
H	 -0.398417	 0.061950	 -2.074060
H	 0.763621	 -0.999315	 -1.275517
