%nprocshared=8
%mem=2GB
#B3LYP/6-31G* nosymm scf=tight
# opt=ModRedundant  EmpiricalDispersion=GD3

Mol

1 1
C	 0.618874	 1.116864	 -2.380530
C	 1.881639	 1.595586	 -1.983901
C	 2.465633	 2.652135	 -2.675549
C	 1.795124	 3.239606	 -3.752824
C	 0.538456	 2.769254	 -4.146245
C	 -0.051515	 1.707182	 -3.468264
C	 -0.000000	 -0.000000	 -1.658508
H	 2.424822	 1.114691	 -1.175242
H	 3.446780	 3.010771	 -2.381841
H	 2.253161	 4.066211	 -4.287201
H	 0.015023	 3.236641	 -4.973953
H	 -1.046148	 1.373360	 -3.750231
N	 -0.712589	 -0.905950	 -2.322235
N	 0.152534	 -0.104763	 -0.341382
H	 -0.175290	 -0.903701	 0.188708
H	 0.551549	 0.663113	 0.182484
H	 -1.377189	 -1.485970	 -1.827091
H	 -0.673431	 -1.006470	 -3.329771

1 7 13 17 F
