%nprocshared=1
%mem=2GB
#HF/6-31G* nosymm scf=tight 

Mol

0 1
O	 1.193023	 1.330472	 -0.955394
C	 0.140502	 1.681556	 -1.381988
C	 -1.132561	 0.871331	 -1.354793
O	 -0.054281	 2.863688	 -1.952602
C	 -1.412532	 0.227344	 -0.000452
H	 -1.943418	 1.530676	 -1.652331
H	 -1.057793	 0.122680	 -2.138812
C	 -2.508679	 -0.836521	 -0.078026
H	 -1.696301	 0.997040	 0.710566
H	 -0.497644	 -0.214133	 0.382407
C	 -3.903986	 -0.234548	 -0.238497
H	 -2.307056	 -1.505997	 -0.911828
H	 -2.482583	 -1.451377	 0.819382
H	 -3.972444	 0.358618	 -1.145757
H	 -4.662160	 -1.009577	 -0.291216
H	 -4.149462	 0.413121	 0.598107
C	 1.065166	 3.726192	 -2.042424
H	 1.444631	 3.960080	 -1.058153
H	 0.709774	 4.621320	 -2.528624
H	 1.850932	 3.269393	 -2.626729

9 5 8 12 F

1 2 3 6 F

1 2 4 17 F

