%nprocshared=1
%mem=2GB
#HF/6-31G* nosymm scf=tight 

Mol

0 1
O	 -0.488453	 0.057968	 1.132425
C	 -0.451170	 -1.129930	 1.097049
C	 0.801727	 -1.959116	 0.945507
O	 -1.528589	 -1.897310	 1.185968
C	 1.124911	 -2.785238	 2.184071
H	 1.613075	 -1.280220	 0.700432
H	 0.669725	 -2.590969	 0.072237
H	 1.272053	 -2.149836	 3.048928
H	 2.030738	 -3.360307	 2.024106
H	 0.320287	 -3.472711	 2.414906
C	 -2.315710	 -2.064800	 0.011324
C	 -2.975293	 -0.734909	 -0.286422
H	 -3.046098	 -2.843350	 0.184465
H	 -1.675397	 -2.384004	 -0.799662
H	 -3.608745	 -0.426602	 0.537497
H	 -3.587916	 -0.817857	 -1.178308
H	 -2.230617	 0.035329	 -0.452095

2 4 11 13 F

4 2 3 6 F

