%nprocshared=1
%mem=2GB
#HF/6-31G* nosymm scf=tight 

Mol

0 1
H	 1.162651	 -1.091045	 1.735852
C	 0.240848	 -1.200664	 1.181264
O	 0.000000	 0.000000	 0.521119
H	 0.347809	 -2.026811	 0.480030
H	 -0.561910	 -1.441536	 1.876425
C	 -1.165642	 0.000000	 -0.238270
H	 -1.228672	 0.883184	 -0.872070
H	 -2.003012	 0.000000	 0.445920
H	 -1.228672	 -0.883184	 -0.872070
