%nprocshared=1
%mem=2GB
#HF/6-31G* nosymm scf=tight 

Mol

0 1
H	 -3.161837	 0.500524	 -0.000234
C	 -2.367097	 -0.232926	 -0.000000
O	 -1.158440	 0.455814	 -0.000122
H	 -2.468853	 -0.861886	 -0.882833
H	 -2.468942	 -0.861421	 0.883154
C	 -1.058687	 1.440634	 0.983775
C	 0.300233	 2.109559	 0.871797
H	 -1.182068	 0.997128	 1.972703
H	 -1.854304	 2.176601	 0.860266
C	 1.176042	 1.476400	 -0.208458
H	 0.148662	 3.163782	 0.661319
H	 0.793611	 2.050576	 1.837094
H	 0.710703	 1.546724	 -1.187711
H	 2.139042	 1.972528	 -0.266203
H	 1.359700	 0.425279	 -0.003962

6 3 2 4 F

8 6 3 2 F

