%nprocshared=1
%mem=2GB
#HF/6-31G* nosymm scf=tight 

Mol

0 1
O	 1.532674	 1.361975	 1.553539
C	 0.696113	 1.248277	 0.698003
C	 -0.341526	 2.337105	 0.498392
N	 0.623947	 0.147590	 -0.102813
H	 -1.347958	 1.956868	 0.634772
H	 -0.150023	 3.103826	 1.233586
H	 -0.277588	 2.772114	 -0.493203
C	 1.665360	 -0.855771	 0.000151
C	 -0.208758	 0.057055	 -1.282071
H	 2.465253	 -0.618490	 -0.692587
H	 1.257730	 -1.821716	 -0.242189
H	 2.081488	 -0.891645	 1.004627
H	 -0.522828	 -0.971283	 -1.415933
H	 -1.097929	 0.659854	 -1.187497
H	 0.323859	 0.364628	 -2.180142

8 4 2 3 F

