%nprocshared=1
%mem=2GB
#HF/6-31G* nosymm scf=tight 

Mol

0 1
H	 1.502325	 -0.045910	 -2.624722
C	 0.772140	 -0.260393	 -1.852871
C	 1.322923	 0.120767	 -0.479465
H	 -0.130074	 0.296315	 -2.086240
H	 0.536992	 -1.319002	 -1.904304
C	 0.306652	 -0.176050	 0.621399
H	 1.567214	 1.177739	 -0.455795
H	 2.233201	 -0.429688	 -0.272936
N	 -1.068537	 -0.011044	 0.085269
H	 0.372515	 -1.192590	 0.973735
H	 0.391664	 0.520566	 1.441230
O	 -1.656956	 -0.997225	 -0.235017
O	 -1.478635	 1.104830	 -0.018026

12 9 6 3 F

