%nprocshared=1
%mem=2GB
#HF/6-31G* nosymm scf=tight 

Mol

0 1
H	 1.052954	 2.865260	 -2.338148
O	 0.424336	 2.507524	 -1.727776
C	 1.064508	 1.599035	 -0.867546
C	 0.031547	 1.023609	 0.088541
H	 1.842655	 2.100560	 -0.294965
H	 1.543102	 0.806035	 -1.437808
C	 -1.134819	 0.293262	 -0.585751
H	 -0.361884	 1.840223	 0.687407
H	 0.543407	 0.348750	 0.772489
C	 -1.917817	 -0.639439	 0.339494
H	 -0.758119	 -0.268455	 -1.433105
H	 -1.813832	 1.041889	 -0.986690
H	 -2.777680	 -1.057197	 -0.174994
H	 -1.310268	 -1.471279	 0.680599
H	 -2.283753	 -0.111424	 1.216626

2 3 4 8 F

1 2 3 4 F

