%nprocshared=1
%mem=2GB
#HF/6-31G* nosymm scf=tight 

Mol

0 1
H	 -2.798360	 -0.862255	 -0.071053
N	 -1.863561	 -0.715187	 0.256814
C	 -1.344686	 0.554728	 -0.219830
H	 -1.300452	 -1.461917	 -0.101532
C	 -0.038054	 0.873317	 0.476122
H	 -1.176307	 0.583517	 -1.297244
H	 -2.062002	 1.334078	 0.018609
O	 -0.300759	 1.062186	 1.837151
H	 0.669554	 0.055526	 0.341411
H	 0.394760	 1.774217	 0.046838
C	 0.806439	 1.447438	 2.587661
H	 0.483957	 1.560583	 3.613770
H	 1.594678	 0.697723	 2.547810
H	 1.213040	 2.394509	 2.239033

8 5 3 6 F

5 8 11 13 F

11 8 5 3 F

