%nprocshared=1
%mem=2GB
#HF/6-31G* nosymm scf=tight 

Mol

0 1
H	 -2.273092	 1.173159	 0.000295
O	 -1.438904	 1.618192	 0.000114
C	 -0.409536	 0.736003	 0.000030
C	 -0.743618	 -0.609207	 0.000216
C	 0.922404	 1.144509	 -0.000254
H	 -1.783003	 -0.880625	 0.000438
C	 0.252588	 -1.566852	 0.000086
C	 1.903170	 0.160087	 -0.000392
C	 1.284845	 2.612719	 -0.000310
H	 -0.013241	 -2.608883	 0.000223
C	 1.584967	 -1.186402	 -0.000223
H	 2.936998	 0.459326	 -0.000596
H	 0.901096	 3.126441	 0.878763
H	 2.359755	 2.741350	 -0.000645
H	 0.900470	 3.126537	 -0.879085
H	 2.365021	 -1.925805	 -0.000320
