%nprocshared=1
%mem=2GB
#HF/6-31G* nosymm scf=tight 

Mol

0 1
H	 -3.457960	 0.166880	 1.449720
O	 -3.367910	 -0.300316	 2.267454
C	 -3.043259	 -1.643282	 2.012310
C	 -1.609705	 -1.833855	 1.529264
H	 -3.184960	 -2.163733	 2.950780
H	 -3.740919	 -2.074362	 1.295219
C	 -1.419160	 -1.583070	 0.031376
H	 -0.963570	 -1.168356	 2.095822
H	 -1.304154	 -2.851367	 1.767329
C	 -2.106918	 -2.640028	 -0.837328
H	 -0.356744	 -1.562718	 -0.194951
H	 -1.813232	 -0.599299	 -0.224048
C	 -3.548986	 -2.967166	 -0.432653
H	 -2.089437	 -2.316066	 -1.876361
H	 -1.521566	 -3.556194	 -0.796076
C	 -3.695812	 -3.662170	 0.923772
H	 -4.116388	 -2.039077	 -0.409821
H	 -4.008176	 -3.582514	 -1.204876
C	 -5.155766	 -3.872313	 1.330971
H	 -3.192721	 -3.070006	 1.686892
H	 -3.193915	 -4.626588	 0.906450
C	 -5.305148	 -4.571648	 2.681629
H	 -5.661906	 -2.909957	 1.365345
H	 -5.662570	 -4.455580	 0.564919
H	 -4.836358	 -3.996290	 3.474991
H	 -6.350516	 -4.704184	 2.942927
H	 -4.840785	 -5.553768	 2.668573

14 10 7 4 F

14 10 13 16 F

10 7 4 8 F

10 13 16 20 F

20 16 19 22 F

4 3 2 1 F

