%nprocshared=1
%mem=2GB
#HF/6-31G* nosymm scf=tight 

Mol

0 1
H	 1.148083	 -1.049780	 0.784252
O	 1.319262	 -0.618148	 -0.041729
C	 0.709265	 0.639550	 -0.033818
C	 0.409984	 1.171676	 1.343082
H	 -0.214314	 0.531195	 -0.591011
H	 1.314725	 1.366715	 -0.573887
C	 0.534226	 0.492555	 2.465634
H	 0.065384	 2.193907	 1.370949
H	 0.857079	 -0.532690	 2.473901
H	 0.302749	 0.937042	 3.416857

5 3 4 7 F

3 4 7 9 F

