%nprocshared=1
%mem=2GB
#HF/6-31G* nosymm scf=tight 

Mol

0 1
O	 2.761322	 1.513558	 0.370506
C	 2.521559	 0.662595	 1.171214
C	 1.233354	 -0.140144	 1.138381
C	 3.496261	 0.326473	 2.281230
C	 0.291004	 0.242674	 0.000989
H	 1.499365	 -1.194733	 1.079486
H	 0.741397	 -0.020400	 2.102767
C	 -0.994322	 -0.586602	 0.000262
H	 0.808539	 0.122428	 -0.945493
H	 0.049496	 1.298010	 0.079016
C	 -2.259874	 0.272531	 0.000494
H	 -1.004862	 -1.240012	 -0.870939
H	 -1.005220	 -1.241071	 0.870675
C	 -3.549786	 -0.549746	 -0.000374
H	 -2.250389	 0.926680	 -0.869574
H	 -2.250838	 0.925513	 0.871430
C	 -4.809590	 0.315458	 -0.000369
H	 -3.560515	 -1.202009	 -0.871156
H	 -3.561123	 -1.202955	 0.869711
H	 -4.844746	 0.956611	 -0.876632
H	 -5.706986	 -0.295590	 -0.001609
H	 -4.845960	 0.954827	 0.877144
H	 3.794302	 -0.716201	 2.221063
H	 4.370878	 0.957039	 2.202079
H	 3.030459	 0.472910	 3.251394

15 11 8 12 F

15 11 14 18 F

1 2 3 6 F

9 5 3 6 F

