%nprocshared=1
%mem=2GB
#HF/6-31G* nosymm scf=tight 

Mol

0 1
O	 -0.488453	 0.057968	 1.132425
C	 -0.451170	 -1.129930	 1.097049
C	 0.801727	 -1.959116	 0.945507
O	 -1.528589	 -1.897310	 1.185968
C	 1.124911	 -2.785238	 2.184071
H	 1.613075	 -1.280220	 0.700432
H	 0.669725	 -2.590969	 0.072237
H	 1.272053	 -2.149836	 3.048928
H	 2.030738	 -3.360307	 2.024106
H	 0.320287	 -3.472711	 2.414906
C	 -2.190117	 -1.959098	 2.445318
C	 -1.275721	 -2.693673	 3.402705
H	 -3.134752	 -2.471130	 2.322544
H	 -2.398622	 -0.953348	 2.783820
H	 -1.072206	 -3.697200	 3.046790
H	 -1.743193	 -2.763882	 4.379531
H	 -0.332024	 -2.171153	 3.510712

2 4 11 13 F

4 2 3 6 F

