%nprocshared=1
%mem=2GB
#HF/6-31G* nosymm scf=tight 

Mol

0 1
H	 2.591676	 2.013956	 0.335017
O	 3.341076	 1.666752	 -0.126416
C	 3.569581	 0.339145	 0.272707
C	 2.539767	 -0.640285	 -0.279495
H	 4.553106	 0.084646	 -0.100901
H	 3.608576	 0.269204	 1.359154
C	 1.115811	 -0.397273	 0.226630
H	 2.556196	 -0.582511	 -1.364741
H	 2.852081	 -1.648031	 -0.010655
C	 0.115918	 -1.429151	 -0.302766
H	 0.797950	 0.599468	 -0.066350
H	 1.109961	 -0.420744	 1.316472
C	 0.722442	 -2.793045	 -0.652428
H	 -0.678741	 -1.565539	 0.428509
H	 -0.359200	 -1.024990	 -1.194178
C	 1.262665	 -3.583543	 0.542457
H	 -0.041317	 -3.390157	 -1.146335
H	 1.517736	 -2.655920	 -1.383553
C	 1.760298	 -4.978640	 0.158395
H	 0.480474	 -3.676656	 1.294533
H	 2.076237	 -3.038387	 1.014906
C	 2.305999	 -5.767434	 1.348217
H	 0.947647	 -5.536559	 -0.301836
H	 2.535142	 -4.888073	 -0.600090
H	 1.544435	 -5.903377	 2.110952
H	 2.648699	 -6.751716	 1.044275
H	 3.144976	 -5.253073	 1.808559

14 10 13 16 F

10 7 4 8 F

8 4 3 2 F

10 13 16 20 F

20 16 19 22 F

4 3 2 1 F

