%nprocshared=1
%mem=2GB
#HF/6-31G* nosymm scf=tight 

Mol

0 1
O	 -1.276010	 1.052711	 -0.768302
C	 -1.204840	 0.067374	 -0.106123
C	 -2.388195	 -0.672128	 0.458071
O	 -0.067104	 -0.527208	 0.221609
H	 -2.388023	 -1.694060	 0.097175
H	 -3.300579	 -0.174919	 0.164318
H	 -2.315377	 -0.706351	 1.539059
C	 1.170111	 0.034140	 -0.238951
C	 1.035814	 1.536782	 -0.066850
C	 1.417073	 -0.380473	 -1.681086
H	 1.961308	 -0.345153	 0.390851
H	 0.845123	 1.787862	 0.970378
H	 1.950302	 2.031701	 -0.376847
H	 0.217742	 1.919927	 -0.667360
H	 2.340623	 0.060048	 -2.043043
H	 1.501962	 -1.456680	 -1.762014
H	 0.604984	 -0.042746	 -2.317057

8 4 2 1 F

