%nprocshared=1
%mem=2GB
#HF/6-31G* nosymm scf=tight 

Mol

0 1
O	 0.131227	 1.176189	 0.435324
C	 0.028650	 0.075053	 -0.000277
C	 -1.233602	 -0.752807	 0.000328
O	 1.036574	 -0.584349	 -0.556316
C	 -2.501530	 0.091881	 0.000126
H	 -1.193807	 -1.406641	 -0.865785
H	 -1.193516	 -1.405779	 0.867015
H	 -2.545121	 0.729328	 -0.874513
H	 -3.377167	 -0.548497	 0.000561
H	 -2.544818	 0.730135	 0.874258
C	 2.284130	 0.082901	 -0.619320
H	 2.200416	 0.990591	 -1.199410
H	 2.963055	 -0.605549	 -1.097817
H	 2.635230	 0.326498	 0.373081

11 4 2 3 F

