%nprocshared=1
%mem=2GB
#HF/6-31G* nosymm scf=tight 

Mol

0 1
H	 -2.657203	 0.605146	 -0.714293
C	 -1.903182	 1.129109	 -1.288977
C	 -0.611907	 0.322712	 -1.360321
H	 -1.736761	 2.087602	 -0.812659
H	 -2.293561	 1.305291	 -2.285892
C	 -0.000005	 0.033229	 -0.000001
H	 0.134111	 0.840980	 -1.959697
H	 -0.778228	 -0.628489	 -1.862266
C	 1.290528	 -0.768786	 0.000276
O	 -0.504657	 0.414537	 1.011491
C	 2.545731	 0.095645	 -0.000061
H	 1.275672	 -1.427874	 -0.865626
H	 1.275566	 -1.427086	 0.866768
H	 2.577157	 0.734767	 -0.874036
H	 3.433520	 -0.528139	 0.000137
H	 2.577172	 0.735117	 0.873581
