%nprocshared=1
%mem=2GB
#HF/6-31G* nosymm scf=tight 

Mol

0 1
H	 1.561770	 -1.833371	 -0.945370
C	 0.676867	 -2.382522	 -0.601596
C	 -0.621349	 -1.621489	 -0.681595
O	 0.783703	 -3.496849	 -0.202860
C	 -0.558097	 -0.297372	 0.091132
H	 -1.413158	 -2.259997	 -0.307659
H	 -0.821777	 -1.416450	 -1.732603
C	 -1.850991	 0.512573	 -0.019058
H	 -0.349030	 -0.503128	 1.138380
H	 0.273283	 0.300514	 -0.277917
C	 -3.096943	 -0.368295	 -0.099594
H	 -1.800724	 1.150330	 -0.898172
H	 -1.931651	 1.177355	 0.838044
H	 -3.060452	 -1.020287	 -0.967456
H	 -3.996858	 0.233488	 -0.175704
H	 -3.191959	 -0.995686	 0.782074

6 3 5 9 F

4 2 3 6 F

