%nprocshared=1
%mem=2GB
#HF/6-31G* nosymm scf=tight 

Mol

0 1
H	 2.519663	 0.169816	 1.761494
C	 2.038600	 -0.488295	 1.044562
C	 1.074513	 -1.450049	 1.737918
H	 1.516633	 0.133467	 0.323241
H	 2.819234	 -1.026984	 0.514257
C	 0.383412	 -2.398020	 0.755297
H	 0.325619	 -0.879562	 2.277643
H	 1.619466	 -2.033902	 2.478077
C	 1.340262	 -3.064659	 -0.233286
H	 -0.147792	 -3.167255	 1.304609
H	 -0.360468	 -1.842172	 0.188977
C	 2.250735	 -4.114450	 0.386570
H	 0.770865	 -3.569360	 -1.012282
H	 1.947364	 -2.322635	 -0.747100
C	 3.475324	 -4.538016	 -0.405696
O	 2.007979	 -4.605159	 1.448022
C	 3.142513	 -5.197708	 -1.752249
H	 4.035161	 -5.223660	 0.218955
H	 4.096187	 -3.660808	 -0.578093
C	 3.906992	 -6.506058	 -1.962969
H	 2.073565	 -5.394231	 -1.800676
H	 3.371148	 -4.517137	 -2.568350
C	 3.584233	 -7.172245	 -3.299729
H	 3.675183	 -7.191428	 -1.151430
H	 4.975620	 -6.311267	 -1.903941
H	 2.526789	 -7.408725	 -3.374670
H	 3.837980	 -6.523738	 -4.133494
H	 4.139105	 -8.097216	 -3.419829

10 6 3 2 F

16 12 15 17 F

