%nprocshared=1
%mem=2GB
#HF/6-31G* nosymm scf=tight 

Mol

0 1
H	 -3.457960	 0.166880	 1.449720
O	 -3.367910	 -0.300316	 2.267454
C	 -3.043259	 -1.643282	 2.012310
C	 -1.609705	 -1.833855	 1.529264
H	 -3.184960	 -2.163733	 2.950780
H	 -3.740919	 -2.074362	 1.295219
C	 -0.908926	 -0.532586	 1.131173
H	 -1.043804	 -2.327521	 2.315023
H	 -1.626336	 -2.511046	 0.676913
C	 -1.504837	 0.097859	 -0.130670
H	 0.147832	 -0.729788	 0.973886
H	 -0.976055	 0.180802	 1.952704
C	 -3.035784	 0.176435	 -0.149829
H	 -1.091613	 1.096363	 -0.261367
H	 -1.178997	 -0.479803	 -0.993129
C	 -3.749738	 -1.176430	 -0.216946
H	 -3.362504	 0.696616	 0.748214
H	 -3.353491	 0.794008	 -0.988580
C	 -5.272213	 -1.052092	 -0.127256
H	 -3.393738	 -1.810830	 0.593554
H	 -3.493257	 -1.689567	 -1.140640
C	 -5.987675	 -2.400580	 -0.200465
H	 -5.538412	 -0.552711	 0.801853
H	 -5.628763	 -0.410651	 -0.930569
H	 -5.676541	 -3.053967	 0.609784
H	 -7.064370	 -2.279279	 -0.132285
H	 -5.771102	 -2.909536	 -1.135572

14 10 7 4 F

14 10 13 16 F

10 7 4 8 F

10 13 16 20 F

20 16 19 22 F

4 3 2 1 F

