%nprocshared=1
%mem=2GB
#HF/6-31G* nosymm scf=tight 

Mol

0 1
H	 -2.499100	 -0.730091	 -0.745082
O	 -2.347518	 -0.290803	 0.079804
C	 -1.184022	 0.487508	 -0.006784
C	 0.062599	 -0.378592	 0.031606
H	 -1.176523	 1.099369	 -0.904519
H	 -1.187323	 1.153111	 0.844927
O	 1.171356	 0.464000	 0.053508
H	 0.093237	 -1.030051	 -0.843975
H	 0.036556	 -1.017509	 0.912339
C	 2.396064	 -0.195092	 0.123015
H	 2.548229	 -0.843738	 -0.737644
H	 3.171951	 0.557728	 0.135825
H	 2.472651	 -0.796615	 1.026395

1 2 3 5 F

10 7 4 8 F

4 7 10 13 F

