%nprocshared=1
%mem=2GB
#HF/6-31G* nosymm scf=tight 

Mol

0 1
H	 -0.216825	 0.021369	 -3.357402
C	 0.374198	 0.036393	 -2.447010
C	 -0.521757	 -0.028637	 -1.217342
H	 0.969602	 0.942322	 -2.434777
H	 1.053364	 -0.811668	 -2.481329
N	 0.263400	 0.031178	 0.000000
H	 -1.199035	 0.820290	 -1.219355
H	 -1.147901	 -0.924895	 -1.265384
C	 -0.521757	 -0.028637	 1.217342
H	 0.935769	 -0.712709	 0.000000
C	 -1.118602	 -1.415940	 1.412828
H	 0.136185	 0.201478	 2.050135
H	 -1.319041	 0.720788	 1.235865
H	 -0.335458	 -2.165134	 1.440357
H	 -1.681620	 -1.467689	 2.339478
H	 -1.796403	 -1.667990	 0.601220
