%nprocshared=1
%mem=2GB
#HF/6-31G* nosymm scf=tight 

Mol

0 1
H	 1.075542	 2.460215	 -0.550204
O	 1.240077	 1.910639	 0.203950
C	 0.709265	 0.639550	 -0.033818
C	 -0.795902	 0.595680	 -0.067389
H	 1.074303	 0.004999	 0.765741
H	 1.099426	 0.224785	 -0.962672
C	 -1.522220	 -0.487727	 -0.255690
H	 -1.282245	 1.548446	 0.074703
H	 -1.071454	 -1.449856	 -0.418625
H	 -2.596511	 -0.445958	 -0.267127

5 3 2 1 F

3 4 7 9 F

