%nprocshared=1
%mem=2GB
#HF/6-31G* nosymm scf=tight 

Mol

0 1
H	 -3.420663	 1.227371	 -1.044276
O	 -3.452007	 0.283848	 -0.965577
C	 -3.181085	 -0.079926	 0.364119
C	 -1.765924	 0.277073	 0.805136
H	 -3.327791	 -1.152017	 0.410903
H	 -3.905698	 0.375695	 1.036898
C	 -0.677594	 -0.417312	 -0.014550
H	 -1.637766	 1.358238	 0.744969
H	 -1.659588	 0.017670	 1.857098
C	 0.659814	 -0.513392	 0.722529
H	 -0.542523	 0.114865	 -0.951168
H	 -1.016774	 -1.417699	 -0.278323
C	 0.511493	 -1.031230	 2.155683
H	 1.327577	 -1.161888	 0.160422
H	 1.133023	 0.467545	 0.743557
C	 -0.234093	 -0.086500	 3.105284
H	 1.497745	 -1.245337	 2.564536
H	 -0.017618	 -1.981573	 2.129100
C	 -0.623510	 -0.710343	 4.446768
H	 -1.136601	 0.260003	 2.607585
H	 0.373231	 0.799089	 3.281612
H	 -1.221581	 -1.606055	 4.301338
H	 -1.210328	 -0.015118	 5.039341
H	 0.245806	 -0.984870	 5.035062

20 16 13 17 F

17 13 10 7 F

13 10 7 11 F

1 2 3 5 F

7 4 3 2 F

