%nprocshared=1
%mem=2GB
#HF/6-31G* nosymm scf=tight 

Mol

0 1
H	 -3.457960	 0.166880	 1.449720
O	 -3.367910	 -0.300316	 2.267454
C	 -3.043259	 -1.643282	 2.012310
C	 -1.609705	 -1.833855	 1.529264
H	 -3.184960	 -2.163733	 2.950780
H	 -3.740919	 -2.074362	 1.295219
C	 -0.596305	 -0.908552	 2.207279
H	 -1.325180	 -2.869854	 1.693937
H	 -1.589265	 -1.666342	 0.453677
C	 -0.785902	 0.560838	 1.820283
H	 0.408882	 -1.226179	 1.944452
H	 -0.683540	 -1.006990	 3.289425
C	 -2.233772	 1.061130	 1.881301
H	 -0.162966	 1.182888	 2.460479
H	 -0.415160	 0.702527	 0.807281
C	 -3.176114	 0.434608	 0.849826
H	 -2.624088	 0.857295	 2.876249
H	 -2.244803	 2.144231	 1.769017
C	 -4.628682	 0.885300	 1.018230
H	 -3.126042	 -0.650356	 0.930173
H	 -2.846528	 0.681117	 -0.156608
C	 -5.570360	 0.266348	 -0.014149
H	 -4.971440	 0.628815	 2.018340
H	 -4.679321	 1.969910	 0.947938
H	 -5.567054	 -0.817978	 0.052561
H	 -6.591879	 0.603357	 0.132677
H	 -5.275881	 0.534986	 -1.024831

14 10 7 4 F

14 10 13 16 F

10 7 4 8 F

10 13 16 20 F

20 16 19 22 F

4 3 2 1 F

