%nprocshared=1
%mem=2GB
#HF/6-31G* nosymm scf=tight 

Mol

0 1
H	 0.936550	 -1.054802	 0.287940
C	 0.861781	 -0.387668	 -0.579843
C	 0.065331	 0.871482	 -0.349150
O	 1.390934	 -0.677856	 -1.603321
C	 -1.339775	 0.583656	 0.198860
H	 0.022052	 1.424219	 -1.280558
H	 0.615762	 1.473133	 0.372795
C	 -1.808407	 -0.848507	 -0.061364
H	 -2.036183	 1.280685	 -0.256307
H	 -1.360094	 0.788874	 1.267089
H	 -1.828843	 -1.063152	 -1.125336
H	 -2.808409	 -1.004529	 0.329750
H	 -1.153967	 -1.577789	 0.406873

6 3 2 4 F

