%nprocshared=1
%mem=2GB
#HF/6-31G* nosymm scf=tight 

Mol

0 1
H	 -3.974642	 -0.944162	 -0.845213
C	 -2.908656	 -0.803893	 -0.873188
C	 -2.327636	 -0.131299	 -1.937698
C	 -2.120327	 -1.296091	 0.155020
H	 -2.940166	 0.249919	 -2.734469
C	 -0.956924	 0.048667	 -1.972965
H	 -2.572495	 -1.817214	 0.979387
C	 -0.748015	 -1.117120	 0.121832
H	 -0.490118	 0.566618	 -2.788741
C	 -0.162646	 -0.443457	 -0.943665
H	 -0.134141	 -1.496336	 0.915353
C	 1.308687	 -0.223184	 -1.029204
O	 1.970282	 -0.730723	 0.000018
O	 1.845002	 0.348828	 -1.925880
C	 3.377318	 -0.566646	 -0.000065
H	 3.695437	 -0.028981	 -0.881264
H	 3.789299	 -1.563704	 0.000236
H	 3.695516	 -0.028316	 0.880770

10 12 13 15 F

13 12 10 6 F

