%nprocshared=1
%mem=2GB
#HF/6-31G* nosymm scf=tight opt=ModRedundant

Mol

0 1
H	 2.745000	 -0.308000	 0.018000
C	 1.800000	 0.086000	 -0.335000
C	 0.678000	 -0.494000	 0.513000
H	 1.683000	 -0.192000	 -1.376000
H	 1.822000	 1.165000	 -0.259000
N	 -0.642000	 0.019000	 0.053000
H	 0.616000	 -1.567000	 0.449000
H	 0.759000	 -0.185000	 1.545000
O	 -1.449000	 -0.777000	 -0.309000
O	 -0.800000	 1.202000	 0.083000
