%nprocshared=1
%mem=2GB
#HF/6-31G* nosymm scf=tight 

Mol

0 1
H	 -0.342652	 -0.970839	 -0.902744
N	 -0.626943	 -0.667432	 -0.000092
C	 -2.036702	 -0.693160	 0.317139
C	 0.325755	 -0.252874	 0.869779
H	 -2.630769	 -0.889467	 -0.569175
H	 -2.310080	 0.270392	 0.715336
H	 -2.254764	 -1.455093	 1.058042
C	 1.674978	 -0.919497	 0.690344
O	 0.127974	 0.574320	 1.716447
H	 2.068026	 -0.726742	 -0.302990
H	 2.359261	 -0.526889	 1.427442
H	 1.590945	 -1.994555	 0.814939

4 2 3 5 F

