%nprocshared=1
%mem=2GB
#HF/6-31G* nosymm scf=tight 

Mol

0 1
O	 1.896399	 1.676523	 0.939899
C	 0.879763	 1.404146	 0.359411
C	 -0.181647	 2.466626	 0.143467
N	 0.623947	 0.147590	 -0.102813
H	 -1.123836	 2.186059	 0.601337
H	 0.176189	 3.377305	 0.599166
H	 -0.359815	 2.643820	 -0.911730
C	 1.665360	 -0.855771	 0.000151
C	 -0.466700	 -0.181134	 -0.994258
H	 2.465253	 -0.618490	 -0.692587
H	 1.257730	 -1.821716	 -0.242189
H	 2.081488	 -0.891645	 1.004627
H	 -0.797848	 -1.192605	 -0.791021
H	 -1.310669	 0.473935	 -0.847507
H	 -0.166720	 -0.130107	 -2.039352

8 4 2 3 F

