%nprocshared=1
%mem=2GB
#HF/6-31G* nosymm scf=tight 

Mol

0 1
H	 -2.613664	 2.012577	 1.580153
C	 -2.061974	 1.223530	 2.087287
O	 -0.772215	 1.098163	 1.581183
H	 -1.977938	 1.473522	 3.135897
H	 -2.622193	 0.294355	 1.991286
C	 -0.719715	 0.768384	 0.229244
C	 0.719720	 0.768376	 -0.229267
H	 -1.148406	 -0.220942	 0.064464
H	 -1.285517	 1.482512	 -0.365646
O	 1.392611	 -0.295398	 0.366430
H	 0.750534	 0.687200	 -1.313918
H	 1.185043	 1.714359	 0.050526
C	 2.706965	 -0.449871	 -0.062409
H	 2.756559	 -0.644779	 -1.131878
H	 3.305899	 0.433456	 0.155466
H	 3.125548	 -1.294566	 0.467107

7 10 13 14 F

2 3 6 7 F

