%nprocshared=1
%mem=2GB
#HF/6-31G* nosymm scf=tight 

Mol

0 1
O	 2.476939	 1.954322	 0.383228
C	 1.620383	 2.059329	 1.206662
C	 0.357050	 1.218044	 1.172538
C	 1.740481	 3.047762	 2.348474
C	 0.291004	 0.242674	 0.000989
H	 0.285024	 0.686506	 2.120519
H	 -0.494871	 1.896567	 1.157091
C	 -0.994322	 -0.586602	 0.000262
H	 1.154288	 -0.414323	 0.035992
H	 0.373276	 0.797055	 -0.928549
C	 -2.259874	 0.272531	 0.000494
H	 -1.004862	 -1.240012	 -0.870939
H	 -1.005220	 -1.241071	 0.870675
C	 -3.549786	 -0.549746	 -0.000374
H	 -2.250389	 0.926680	 -0.869574
H	 -2.250838	 0.925513	 0.871430
C	 -4.809590	 0.315458	 -0.000369
H	 -3.560515	 -1.202009	 -0.871156
H	 -3.561123	 -1.202955	 0.869711
H	 -4.844746	 0.956611	 -0.876632
H	 -5.706986	 -0.295590	 -0.001609
H	 -4.845960	 0.954827	 0.877144
H	 1.698517	 2.531187	 3.302941
H	 2.675548	 3.584636	 2.269408
H	 0.914729	 3.752969	 2.327263

15 11 8 12 F

15 11 14 18 F

1 2 3 6 F

9 5 3 6 F

