%nprocshared=1
%mem=2GB
#HF/6-31G* nosymm scf=tight 

Mol

0 1
O	 1.794244	 -0.858910	 -2.836172
C	 0.774504	 -0.480069	 -3.325424
C	 -0.546527	 -0.522171	 -2.578401
C	 0.733243	 0.071795	 -4.735708
C	 -0.443874	 -1.088124	 -1.165109
H	 -0.951096	 0.488949	 -2.559740
H	 -1.248673	 -1.102585	 -3.175488
C	 -1.792954	 -1.114394	 -0.444654
H	 0.267119	 -0.497441	 -0.596152
H	 -0.031019	 -2.090845	 -1.212541
C	 -2.259874	 0.272531	 0.000494
H	 -2.545540	 -1.553306	 -1.098119
H	 -1.728122	 -1.766963	 0.424838
C	 -2.299309	 1.292585	 -1.138781
H	 -1.602043	 0.637938	 0.787104
H	 -3.250126	 0.192717	 0.445496
C	 -3.566352	 2.147124	 -1.131721
H	 -1.427462	 1.940154	 -1.072741
H	 -2.220829	 0.772174	 -2.091079
H	 -3.656394	 2.706940	 -0.205088
H	 -3.564796	 2.860504	 -1.950126
H	 -4.455333	 1.530813	 -1.231810
H	 0.357809	 1.090942	 -4.733056
H	 1.725908	 0.053912	 -5.163645
H	 0.061616	 -0.517323	 -5.353358

9 5 8 12 F

15 11 8 12 F

1 2 3 6 F

9 5 3 6 F

