%nprocshared=1
%mem=2GB
#HF/6-31G* nosymm scf=tight 

Mol

0 1
H	 -0.944757	 -0.000069	 1.678017
O	 -0.042387	 -0.000390	 1.388199
C	 -0.001487	 0.000018	 -0.026623
C	 -0.912503	 1.104990	 -0.564887
C	 1.439753	 0.205041	 -0.497193
C	 -0.515386	 -1.374328	 -0.440751
H	 -0.936220	 1.105262	 -1.649938
H	 -0.564983	 2.083686	 -0.241950
H	 -1.923774	 0.969711	 -0.197396
H	 1.511610	 0.170780	 -1.579668
H	 1.818645	 1.171114	 -0.171501
H	 2.082443	 -0.564410	 -0.083948
H	 -0.524127	 -1.476923	 -1.521095
H	 -1.523361	 -1.524441	 -0.070695
H	 0.115835	 -2.151275	 -0.024451
