%nprocshared=1
%mem=2GB
#HF/6-31G* nosymm scf=tight 

Mol

0 1
H	 -2.798360	 -0.862255	 -0.071053
N	 -1.863561	 -0.715187	 0.256814
C	 -1.344686	 0.554728	 -0.219830
H	 -1.300452	 -1.461917	 -0.101532
C	 0.081427	 0.741154	 0.254071
H	 -1.362155	 0.656231	 -1.305829
H	 -1.952773	 1.354456	 0.191809
O	 0.909751	 -0.086178	 -0.511753
H	 0.383219	 1.782069	 0.139806
H	 0.154342	 0.477579	 1.306899
C	 2.246462	 -0.078245	 -0.123535
H	 2.783378	 -0.747139	 -0.782321
H	 2.678793	 0.917426	 -0.205447
H	 2.364722	 -0.422518	 0.901794

6 3 2 4 F

5 8 11 13 F

11 8 5 3 F

