%nprocshared=1
%mem=2GB
#HF/6-31G* nosymm scf=tight 

Mol

0 1
O	 -1.276010	 1.052711	 -0.768302
C	 -1.204840	 0.067374	 -0.106123
C	 -2.388195	 -0.672128	 0.458071
O	 -0.067104	 -0.527208	 0.221609
H	 -2.388023	 -1.694060	 0.097175
H	 -3.300579	 -0.174919	 0.164318
H	 -2.315377	 -0.706351	 1.539059
C	 1.170111	 0.034140	 -0.238951
C	 0.947851	 1.534719	 -0.305662
C	 1.541159	 -0.573328	 -1.582808
H	 1.931985	 -0.198989	 0.490230
H	 0.670350	 1.924317	 0.667197
H	 1.856094	 2.033108	 -0.628206
H	 0.156898	 1.774346	 -1.008247
H	 2.464932	 -0.135769	 -1.947777
H	 1.686038	 -1.642486	 -1.493995
H	 0.761023	 -0.383414	 -2.313102

8 4 2 1 F

