%nprocshared=1
%mem=2GB
#HF/6-31G* nosymm scf=tight 

Mol

0 1
H	 1.837052	 1.549087	 -2.863806
O	 1.934731	 0.974527	 -3.609065
C	 2.488356	 -0.248538	 -3.194741
C	 1.508523	 -1.118508	 -2.415122
H	 2.788085	 -0.758114	 -4.101477
H	 3.389414	 -0.079104	 -2.606382
C	 1.055881	 -0.508568	 -1.086229
H	 0.642074	 -1.309588	 -3.042914
H	 1.983395	 -2.080292	 -2.228479
C	 0.115918	 -1.429151	 -0.302766
H	 0.559149	 0.438303	 -1.278736
H	 1.929741	 -0.285599	 -0.473862
C	 0.579824	 -2.886769	 -0.200376
H	 -0.027767	 -1.026108	 0.698113
H	 -0.862006	 -1.411824	 -0.779277
C	 0.727785	 -3.417141	 1.228361
H	 -0.136855	 -3.511425	 -0.729518
H	 1.526011	 -3.000648	 -0.727253
C	 1.089510	 -4.903113	 1.278129
H	 -0.203924	 -3.256926	 1.769064
H	 1.489685	 -2.852392	 1.760217
C	 1.244105	 -5.433542	 2.703053
H	 0.324002	 -5.477389	 0.760738
H	 2.015148	 -5.066637	 0.730097
H	 0.323796	 -5.314109	 3.267847
H	 1.498359	 -6.488998	 2.704892
H	 2.028698	 -4.903778	 3.236090

14 10 7 4 F

10 7 4 8 F

8 4 3 2 F

10 13 16 20 F

20 16 19 22 F

4 3 2 1 F

