%nprocshared=1
%mem=2GB
#HF/6-31G* nosymm scf=tight 

Mol

0 1
O	 -0.389695	 0.092980	 2.453461
C	 -0.833093	 0.610524	 1.479901
C	 -1.689737	 1.847648	 1.474314
O	 -0.632575	 0.154573	 0.251549
H	 -2.647636	 1.627754	 1.017121
H	 -1.833848	 2.193421	 2.486988
H	 -1.213112	 2.620317	 0.882227
C	 0.160891	 -1.019931	 0.106212
C	 1.589627	 -0.672828	 0.480843
H	 0.089836	 -1.367806	 -0.916050
H	 -0.238459	 -1.792301	 0.749618
C	 2.438303	 -0.182875	 -0.693931
H	 2.040805	 -1.565066	 0.910124
H	 1.574089	 0.078663	 1.265877
C	 1.733483	 0.894443	 -1.517106
H	 3.380582	 0.209122	 -0.316375
H	 2.686869	 -1.024109	 -1.332601
H	 2.354627	 1.224321	 -2.343782
H	 1.501054	 1.765012	 -0.910176
H	 0.800908	 0.522929	 -1.932267

16 12 9 8 F

2 4 8 10 F

1 2 4 8 F

