%nprocshared=1
%mem=2GB
#HF/6-31G* nosymm scf=tight 

Mol

0 1
H	 -2.698709	 -0.000305	 0.034435
C	 -1.693833	 0.000034	 0.434417
O	 -0.828952	 -0.000968	 -0.659236
H	 -1.574200	 0.882896	 1.055746
H	 -1.574147	 -0.881698	 1.057355
C	 0.559449	 -0.000018	 -0.420814
C	 1.276872	 -1.143062	 -1.136126
C	 1.201368	 1.356488	 -0.705052
H	 0.626387	 -0.181847	 0.645248
H	 0.765092	 -2.081683	 -0.952767
H	 2.293708	 -1.231803	 -0.766796
H	 1.332157	 -0.986313	 -2.208757
H	 0.636946	 2.147968	 -0.223966
H	 2.214733	 1.376239	 -0.316252
H	 1.255693	 1.570932	 -1.767551

6 3 2 1 F

