%nprocshared=1
%mem=2GB
#HF/6-31G* nosymm scf=tight 

Mol

0 1
H	 -3.042581	 -0.665861	 0.004336
O	 -2.245037	 -1.176175	 0.000806
C	 -1.162163	 -0.365336	 0.001020
C	 -0.917756	 0.548256	 -1.008409
C	 -0.281515	 -0.483599	 1.069338
H	 -1.598016	 0.639147	 -1.838444
C	 0.217642	 1.343112	 -0.937806
H	 -0.501104	 -1.205351	 1.834826
C	 0.849744	 0.310408	 1.139488
H	 0.412042	 2.052953	 -1.722264
C	 1.096407	 1.230667	 0.120543
C	 1.795499	 0.199605	 2.312676
H	 1.973602	 1.852214	 0.159763
H	 2.829335	 0.215862	 1.984487
H	 1.632769	 -0.717053	 2.866858
H	 1.657271	 1.030822	 2.998474
