%nprocshared=1
%mem=2GB
#HF/6-31G* nosymm scf=tight 

Mol

0 1
H	 -2.852708	 0.006011	 1.001326
O	 -2.034916	 -0.426072	 1.200302
C	 -1.211209	 -0.428117	 0.062077
C	 -0.625317	 0.942557	 -0.258408
H	 -0.412229	 -1.125666	 0.278248
H	 -1.753424	 -0.814929	 -0.799990
C	 -0.014469	 1.656298	 0.950024
H	 0.129319	 0.822832	 -1.031426
H	 -1.416937	 1.559353	 -0.680626
C	 -1.065414	 2.080120	 1.979931
H	 0.532812	 2.530754	 0.609181
H	 0.711196	 0.999386	 1.429833
C	 -2.087810	 0.996018	 2.340165
H	 -0.563860	 2.416860	 2.885413
H	 -1.601607	 2.943652	 1.591973
C	 -3.034785	 0.600176	 1.203932
H	 -1.546246	 0.109877	 2.664632
H	 -2.671815	 1.323860	 3.198824
C	 -4.465221	 1.099239	 1.418936
H	 -3.044660	 -0.484477	 1.106250
H	 -2.666261	 0.987989	 0.257311
C	 -5.411106	 0.710962	 0.283063
H	 -4.847259	 0.703375	 2.357459
H	 -4.456195	 2.181939	 1.526468
H	 -5.467273	 -0.368187	 0.171231
H	 -6.416738	 1.077069	 0.465559
H	 -5.076338	 1.123259	 -0.664726

14 10 7 4 F

14 10 13 16 F

10 7 4 8 F

8 4 3 2 F

20 16 19 22 F

4 3 2 1 F

