%nprocshared=1
%mem=2GB
#HF/6-31G* nosymm scf=tight 

Mol

0 1
H	 2.233180	 -0.955972	 -0.794811
C	 1.472668	 -0.209501	 -0.957464
O	 0.464886	 -0.454746	 -0.000158
H	 1.085099	 -0.306768	 -1.964615
H	 1.903920	 0.775709	 -0.825382
C	 -0.590998	 0.343045	 0.000118
O	 -1.699443	 -0.054298	 0.000227
H	 -0.340329	 1.404368	 0.000207
