%nprocshared=1
%mem=2GB
#HF/6-31G* nosymm scf=tight 

Mol

0 1
O	 -0.256594	 -0.462561	 1.871111
C	 -0.254285	 0.285690	 0.930464
C	 -1.267178	 1.412597	 0.851631
N	 0.623947	 0.147590	 -0.102813
H	 -1.887453	 1.328290	 -0.033940
H	 -1.892076	 1.346569	 1.729235
H	 -0.783339	 2.383224	 0.832486
C	 1.665360	 -0.855771	 0.000151
C	 0.819423	 1.139042	 -1.137732
H	 2.465253	 -0.618490	 -0.692587
H	 1.257730	 -1.821716	 -0.242189
H	 2.081488	 -0.891645	 1.004627
H	 1.092939	 0.639706	 -2.059628
H	 -0.082310	 1.699798	 -1.325785
H	 1.615187	 1.837738	 -0.885946

8 4 2 3 F

