%nprocshared=1
%mem=2GB
#HF/6-31G* nosymm scf=tight 

Mol

0 1
H	 -2.577606	 0.247184	 1.509904
O	 -1.840915	 -0.185680	 1.103718
C	 -2.061112	 -1.573124	 1.079922
C	 -2.917312	 -2.065892	 2.241314
H	 -2.564532	 -1.775192	 0.143220
H	 -1.112931	 -2.109137	 1.059351
C	 -4.184011	 -1.239104	 2.475327
H	 -3.187086	 -3.102248	 2.055422
H	 -2.306025	 -2.053853	 3.142175
C	 -3.882556	 0.173815	 2.982873
H	 -4.819260	 -1.753801	 3.190806
H	 -4.749244	 -1.171615	 1.545650
C	 -2.781853	 0.913235	 2.213425
H	 -4.796388	 0.764796	 2.960501
H	 -3.588568	 0.110556	 4.028468
C	 -1.379293	 0.317553	 2.363321
H	 -3.046025	 0.916623	 1.157955
H	 -2.765560	 1.956950	 2.523634
C	 -0.810864	 0.478862	 3.774811
H	 -0.708500	 0.794742	 1.650272
H	 -1.392446	 -0.739513	 2.108878
C	 -1.793691	 0.058236	 4.866959
H	 0.100857	 -0.107778	 3.864848
H	 -0.521833	 1.516308	 3.929896
H	 -2.077214	 -0.984891	 4.758679
H	 -1.361158	 0.182281	 5.854968
H	 -2.702454	 0.652317	 4.827183

14 10 7 4 F

14 10 13 16 F

10 7 4 8 F

8 4 3 2 F

10 13 16 20 F

20 16 19 22 F

