%nprocshared=1
%mem=2GB
#HF/6-31G* nosymm scf=tight 

Mol

0 1
H	 -1.070890	 -1.366565	 0.180696
O	 -1.422729	 -0.573567	 -0.196946
C	 -0.731407	 0.539437	 0.309156
C	 0.680193	 0.672443	 -0.251532
H	 -1.319765	 1.404033	 0.030086
H	 -0.700012	 0.506517	 1.397677
C	 1.344650	 -0.668666	 -0.563985
H	 0.639102	 1.278599	 -1.151829
H	 1.284052	 1.216646	 0.471474
H	 0.805758	 -1.207615	 -1.337500
H	 2.359490	 -0.527128	 -0.920402
H	 1.391453	 -1.301708	 0.318812

1 2 3 4 F

