%nprocshared=1
%mem=2GB
#HF/6-31G* nosymm scf=tight 

Mol

0 1
O	 -6.378629	 3.075924	 0.969795
C	 -5.392057	 3.555009	 0.500850
C	 -4.042649	 2.863098	 0.573629
C	 -5.423978	 4.896128	 -0.203095
C	 -4.071439	 1.518440	 1.294254
H	 -3.672665	 2.746562	 -0.444172
H	 -3.344409	 3.544542	 1.057878
C	 -2.695584	 0.852130	 1.347325
H	 -4.779947	 0.863496	 0.797069
H	 -4.451091	 1.662339	 2.300884
C	 -2.259874	 0.272531	 0.000494
H	 -1.954000	 1.575645	 1.682924
H	 -2.704505	 0.058494	 2.093065
C	 -2.299309	 1.292585	 -1.138781
H	 -2.899189	 -0.571838	 -0.251175
H	 -1.251106	 -0.126593	 0.090406
C	 -3.566352	 2.147124	 -1.131721
H	 -1.427462	 1.940154	 -1.072741
H	 -2.220829	 0.772174	 -2.091079
H	 -3.656394	 2.706940	 -0.205088
H	 -3.564796	 2.860504	 -1.950126
H	 -4.455333	 1.530813	 -1.231810
H	 -5.083981	 4.793603	 -1.229500
H	 -6.431142	 5.289032	 -0.194009
H	 -4.756707	 5.597910	 0.288724

9 5 8 12 F

15 11 8 12 F

1 2 3 6 F

9 5 3 6 F

