%nprocshared=1
%mem=2GB
#HF/6-31G* nosymm scf=tight 

Mol

0 1
H	 1.128778	 0.332095	 1.509242
C	 1.142692	 0.156666	 0.426313
C	 0.065331	 0.871482	 -0.349150
O	 1.969069	 -0.549434	 -0.053524
C	 -1.339775	 0.583656	 0.198860
H	 0.149735	 0.588539	 -1.392094
H	 0.268270	 1.938846	 -0.273576
C	 -1.808407	 -0.848507	 -0.061364
H	 -2.036183	 1.280685	 -0.256307
H	 -1.360094	 0.788874	 1.267089
H	 -1.828843	 -1.063152	 -1.125336
H	 -2.808409	 -1.004529	 0.329750
H	 -1.153967	 -1.577789	 0.406873

6 3 2 4 F

