%nprocshared=1
%mem=2GB
#HF/6-31G* nosymm scf=tight 

Mol

0 1
H	 1.664368	 1.850521	 -1.438233
O	 0.766351	 1.688629	 -1.187485
C	 0.702312	 0.627605	 -0.264544
C	 -0.714990	 0.596302	 0.266387
H	 1.393970	 0.790856	 0.557535
H	 0.946782	 -0.319217	 -0.741290
O	 -1.405996	 -0.526611	 -0.195820
H	 -1.257453	 1.468809	 -0.075599
H	 -0.688972	 0.618407	 1.353696
H	 -0.890587	 -1.292708	 0.022039

10 7 4 3 F

