%nprocshared=1
%mem=2GB
#HF/6-31G* nosymm scf=tight 

Mol

0 1
H	 -2.577606	 0.247184	 1.509904
O	 -1.840915	 -0.185680	 1.103718
C	 -2.061112	 -1.573124	 1.079922
C	 -1.535870	 -2.286500	 2.320866
H	 -3.133986	 -1.699719	 1.012177
H	 -1.626613	 -2.012578	 0.182777
C	 -1.932487	 -1.616388	 3.638634
H	 -1.898285	 -3.311137	 2.308920
H	 -0.450354	 -2.333080	 2.251201
C	 -1.254721	 -0.257918	 3.838662
H	 -1.677365	 -2.274290	 4.464735
H	 -3.014103	 -1.483360	 3.666023
C	 -1.303531	 0.671633	 2.620510
H	 -1.704958	 0.244453	 4.692920
H	 -0.212505	 -0.426500	 4.101466
C	 -0.493994	 0.193366	 1.412044
H	 -2.342685	 0.785090	 2.318680
H	 -0.964027	 1.664372	 2.912134
C	 1.016294	 0.225222	 1.655869
H	 -0.731177	 0.817188	 0.551404
H	 -0.784962	 -0.819371	 1.143707
C	 1.421883	 -0.419747	 2.980700
H	 1.523680	 -0.281674	 0.837881
H	 1.362256	 1.256631	 1.636123
H	 1.118477	 -1.462221	 3.018335
H	 2.497496	 -0.383265	 3.123393
H	 0.959530	 0.088368	 3.822372

14 10 7 4 F

14 10 13 16 F

10 7 4 8 F

8 4 3 2 F

10 13 16 20 F

20 16 19 22 F

