%nprocshared=1
%mem=2GB
#HF/6-31G* nosymm scf=tight 

Mol

0 1
H	 -1.689578	 2.162657	 0.713358
C	 -1.825692	 1.254690	 1.288174
C	 -0.530924	 0.453963	 1.360073
H	 -2.611270	 0.680979	 0.811724
H	 -2.156823	 1.526897	 2.284934
C	 -0.000005	 0.033229	 -0.000001
H	 -0.665482	 -0.444302	 1.959581
H	 0.248153	 1.024361	 1.862150
C	 1.290528	 -0.768786	 0.000276
O	 -0.565034	 0.316685	 -1.011722
C	 2.545731	 0.095645	 -0.000061
H	 1.275672	 -1.427874	 -0.865626
H	 1.275566	 -1.427086	 0.866768
H	 2.577157	 0.734767	 -0.874036
H	 3.433520	 -0.528139	 0.000137
H	 2.577172	 0.735117	 0.873581
