%nprocshared=1
%mem=2GB
#HF/6-31G* nosymm scf=tight 

Mol

0 1
H	 0.874401	 3.067252	 2.011106
O	 1.581037	 2.669676	 1.520903
C	 1.141151	 1.626604	 0.789003
C	 2.078621	 0.947645	 0.016922
C	 -0.180516	 1.224960	 0.785571
H	 3.099687	 1.279148	 0.036617
C	 1.690113	 -0.128432	 -0.753912
H	 -0.923742	 1.729685	 1.370715
C	 -0.536158	 0.140425	 0.000000
H	 2.420442	 -0.646867	 -1.346957
C	 0.367817	 -0.551465	 -0.774380
N	 -1.935604	 -0.280333	 0.000000
H	 0.051256	 -1.384384	 -1.367204
O	 -2.161694	 -1.452901	 0.000000
O	 -2.770341	 0.571417	 0.000000

4 3 2 1 F

