%nprocshared=1
%mem=2GB
#HF/6-31G* nosymm scf=tight 

Mol

0 1
O	 -0.488453	 0.057968	 1.132425
C	 -0.451170	 -1.129930	 1.097049
C	 0.801727	 -1.959116	 0.945507
O	 -1.528589	 -1.897310	 1.185968
C	 1.124911	 -2.785238	 2.184071
H	 1.613075	 -1.280220	 0.700432
H	 0.669725	 -2.590969	 0.072237
H	 1.272053	 -2.149836	 3.048928
H	 2.030738	 -3.360307	 2.024106
H	 0.320287	 -3.472711	 2.414906
C	 -1.425525	 -3.089030	 1.958355
C	 -0.502670	 -4.032405	 1.216268
H	 -2.412248	 -3.512981	 2.085738
H	 -1.040784	 -2.841872	 2.938395
H	 -0.899304	 -4.265799	 0.234755
H	 -0.395578	 -4.958054	 1.772463
H	 0.479730	 -3.591131	 1.092076

2 4 11 13 F

4 2 3 6 F

