%nprocshared=1
%mem=2GB
#HF/6-31G* nosymm scf=tight 

Mol

0 1
H	 2.682400	 -0.656981	 -0.446236
O	 2.569891	 -0.615414	 -1.385386
C	 2.081869	 -1.842755	 -1.857039
C	 0.920348	 -2.335415	 -1.012158
H	 1.776064	 -1.779717	 -2.897648
H	 2.897597	 -2.549387	 -1.796132
O	 -0.043959	 -1.331029	 -0.978982
H	 1.264339	 -2.570275	 -0.002955
H	 0.519358	 -3.251770	 -1.441209
C	 -0.381609	 -0.813417	 -2.226865
H	 0.366496	 -0.106062	 -2.579876
H	 -0.435693	 -1.641239	 -2.920182
H	 -1.346371	 -0.311084	 -2.200645

8 4 3 5 F

1 2 3 5 F

10 7 4 8 F

