%nprocshared=1
%mem=2GB
#HF/6-31G* nosymm scf=tight 

Mol

0 1
H	 -3.161837	 0.500524	 -0.000234
C	 -2.367097	 -0.232926	 -0.000000
O	 -1.158440	 0.455814	 -0.000122
H	 -2.468853	 -0.861886	 -0.882833
H	 -2.468942	 -0.861421	 0.883154
C	 -1.058687	 1.440634	 0.983775
C	 0.300233	 2.109559	 0.871797
H	 -1.182068	 0.997128	 1.972703
H	 -1.854304	 2.176601	 0.860266
C	 0.211473	 3.519132	 0.288610
H	 0.751331	 2.139923	 1.858838
H	 0.940343	 1.487445	 0.253789
H	 -0.405858	 4.165548	 0.906244
H	 1.194719	 3.972251	 0.219638
H	 -0.216216	 3.508551	 -0.710076

6 3 2 4 F

8 6 3 2 F

