%nprocshared=1
%mem=2GB
#HF/6-31G* nosymm scf=tight 

Mol

0 1
H	 2.332609	 0.878551	 -1.051851
C	 2.357710	 0.000000	 -0.417167
C	 1.175432	 0.000000	 0.532082
H	 3.291263	 0.000000	 0.136880
H	 2.332609	 -0.878551	 -1.051851
O	 0.000000	 0.000000	 -0.221444
H	 1.206604	 0.877321	 1.177902
H	 1.206604	 -0.877321	 1.177902
C	 -1.175432	 0.000000	 0.532082
C	 -1.595426	 1.436988	 0.771927
H	 -1.012643	 -0.511685	 1.480462
H	 -1.959463	 -0.541899	 0.003510
H	 -0.820037	 1.972811	 1.307624
H	 -2.509144	 1.474378	 1.356913
H	 -1.768184	 1.942554	 -0.171399
