%nprocshared=1
%mem=2GB
#HF/6-31G* nosymm scf=tight 

Mol

0 1
H	 -2.698709	 -0.000305	 0.034435
C	 -1.693833	 0.000034	 0.434417
O	 -0.828952	 -0.000968	 -0.659236
H	 -1.574200	 0.882896	 1.055746
H	 -1.574147	 -0.881698	 1.057355
C	 0.559449	 -0.000018	 -0.420814
C	 1.152558	 1.407511	 -0.422373
C	 0.939057	 -0.788561	 0.831007
H	 0.957077	 -0.528519	 -1.279074
H	 0.821774	 1.954135	 -1.298919
H	 2.236464	 1.353403	 -0.443745
H	 0.871732	 1.972824	 0.460645
H	 0.459941	 -1.761613	 0.822359
H	 2.013736	 -0.938490	 0.863437
H	 0.654099	 -0.273967	 1.743056

6 3 2 1 F

