%nprocshared=1
%mem=2GB
#HF/6-31G* nosymm scf=tight 

Mol

0 1
H	 -0.367348	 2.047014	 -0.308205
C	 0.352277	 1.337084	 0.083769
N	 -0.000016	 0.000074	 -0.335546
H	 1.328359	 1.600444	 -0.307950
H	 0.381933	 1.450534	 1.172486
C	 0.615837	 -0.350634	 -1.594910
C	 0.275887	 -0.978382	 0.691420
H	 0.273296	 -1.329192	 -1.911835
H	 0.329600	 0.365974	 -2.356491
H	 1.709387	 -0.373871	 -1.545008
H	 -0.258527	 -0.720184	 1.598674
H	 -0.065741	 -1.955720	 0.369646
H	 1.340602	 -1.054595	 0.935350
