%nprocshared=1
%mem=2GB
#HF/6-31G* nosymm scf=tight 

Mol

0 1
H	 2.652209	 0.763231	 0.000000
O	 2.263154	 -0.100023	 0.000000
C	 0.912879	 -0.015685	 0.000000
C	 0.208030	 -1.041295	 0.616353
C	 0.234208	 1.041111	 -0.584528
H	 0.753495	 -1.851421	 1.063538
C	 -1.172412	 -0.999747	 0.642096
H	 0.781682	 1.836331	 -1.062460
C	 -1.152361	 1.070059	 -0.551305
H	 -1.713687	 -1.796427	 1.120645
C	 -1.864200	 0.054320	 0.059611
H	 -1.671582	 1.894093	 -1.007449
H	 -2.938230	 0.079768	 0.083603
