%nprocshared=1
%mem=2GB
#HF/6-31G* nosymm scf=tight opt=ModRedundant

Mol

0 1
O	 0.103000	 1.279000	 0.000000
C	 0.058000	 0.091000	 0.000000
C	 -1.205000	 -0.737000	 0.000000
O	 1.138000	 -0.678000	 0.000000
C	 -2.473000	 0.108000	 -0.000000
H	 -1.165000	 -1.390000	 -0.866000
H	 -1.165000	 -1.390000	 0.867000
H	 -2.516000	 0.746000	 -0.875000
H	 -3.348000	 -0.532000	 -0.000000
H	 -2.516000	 0.746000	 0.874000
C	 2.394000	 -0.023000	 -0.000000
H	 2.500000	 0.594000	 -0.881000
H	 3.135000	 -0.807000	 -0.001000
H	 2.501000	 0.593000	 0.881000
