%nprocshared=1
%mem=2GB
#HF/6-31G* nosymm scf=tight 

Mol

0 1
H	 -2.354083	 -0.785833	 2.182794
C	 -1.858048	 -0.506338	 1.272186
C	 -2.578452	 -0.050809	 0.181104
C	 -0.485998	 -0.598360	 1.177541
H	 -3.649329	 0.028208	 0.235143
C	 -1.926763	 0.305511	 -0.984686
H	 0.099614	 -0.946386	 2.002595
C	 0.154804	 -0.237046	 -0.000077
H	 -2.503626	 0.656819	 -1.820094
C	 -0.542243	 0.226840	 -1.120775
N	 1.611208	 -0.370857	 -0.000034
C	 0.065333	 0.642988	 -2.442367
O	 2.274126	 0.622059	 -0.008063
O	 2.068510	 -1.474748	 0.007823
H	 0.607426	 -0.170547	 -2.904345
H	 -0.724966	 0.958266	 -3.111995
H	 0.762493	 1.460314	 -2.319607
