%nprocshared=1
%mem=2GB
#HF/6-31G* nosymm scf=tight 

Mol

0 1
H	 -2.577606	 0.247184	 1.509904
O	 -1.840915	 -0.185680	 1.103718
C	 -2.061112	 -1.573124	 1.079922
C	 -3.501486	 -1.947577	 0.748508
H	 -1.397649	 -1.963397	 0.318885
H	 -1.765552	 -2.022165	 2.027438
C	 -4.074585	 -1.206098	 -0.461713
H	 -3.547969	 -3.019588	 0.575308
H	 -4.115493	 -1.740631	 1.623457
C	 -4.270332	 0.289952	 -0.200300
H	 -5.025399	 -1.653715	 -0.737318
H	 -3.408031	 -1.335420	 -1.314544
C	 -3.076356	 0.990066	 0.458944
H	 -4.507344	 0.789217	 -1.138067
H	 -5.140907	 0.418478	 0.439451
C	 -2.782958	 0.548350	 1.895358
H	 -2.193005	 0.803646	 -0.148307
H	 -3.234941	 2.067215	 0.438024
C	 -3.867682	 0.979263	 2.884865
H	 -1.826081	 0.962511	 2.209952
H	 -2.676470	 -0.532835	 1.940099
C	 -5.280785	 0.653934	 2.402199
H	 -3.693588	 0.494797	 3.843234
H	 -3.785641	 2.049126	 3.065276
H	 -5.404873	 -0.413635	 2.243700
H	 -6.026345	 0.969490	 3.125524
H	 -5.499496	 1.153929	 1.462766

14 10 7 4 F

14 10 13 16 F

10 7 4 8 F

8 4 3 2 F

10 13 16 20 F

20 16 19 22 F

