%nprocshared=1
%mem=2GB
#HF/6-31G* nosymm scf=tight 

Mol

0 1
O	 -3.853486	 4.767425	 2.367791
C	 -3.589812	 4.457530	 1.246542
C	 -2.652680	 3.307590	 0.923494
C	 -4.178810	 5.198743	 0.063816
C	 -2.933125	 2.035105	 1.717450
H	 -2.717326	 3.115698	 -0.146734
H	 -1.633034	 3.650735	 1.093720
C	 -4.294260	 2.067055	 2.414624
H	 -2.145828	 1.892688	 2.450942
H	 -2.879930	 1.180543	 1.050335
C	 -4.320555	 2.992625	 3.632147
H	 -5.058099	 2.384743	 1.706336
H	 -4.567816	 1.059443	 2.724385
C	 -3.864078	 4.418565	 3.318560
H	 -3.687298	 2.576516	 4.413721
H	 -5.329059	 3.020133	 4.040998
C	 -2.353169	 4.531567	 3.118388
H	 -4.373516	 4.771335	 2.424216
H	 -4.171308	 5.080754	 4.125390
H	 -2.018977	 3.906197	 2.295358
H	 -2.060559	 5.553394	 2.897143
H	 -1.815343	 4.218919	 4.008972
H	 -4.744894	 4.518640	 -0.565967
H	 -4.826996	 5.989572	 0.414927
H	 -3.388670	 5.622899	 -0.548887

9 5 8 12 F

15 11 8 12 F

15 11 14 18 F

1 2 3 6 F

