%nprocshared=1
%mem=2GB
#HF/6-31G* nosymm scf=tight 

Mol

0 1
H	 3.083879	 -1.346558	 0.395444
O	 2.172668	 -1.603300	 0.415122
C	 1.365383	 -0.540424	 0.207814
C	 1.851592	 0.694872	 -0.200779
C	 0.008514	 -0.715064	 0.417190
H	 2.907892	 0.828660	 -0.363159
C	 0.981535	 1.753720	 -0.399553
H	 -0.368356	 -1.668706	 0.732801
C	 -0.855722	 0.350134	 0.215925
H	 1.369529	 2.704948	 -0.715787
C	 -0.376008	 1.588152	 -0.192678
C	 -2.314632	 0.169388	 0.439048
H	 -1.053618	 2.409246	 -0.346476
O	 -2.843933	 -0.879892	 0.621798
H	 -2.900840	 1.093199	 0.425584

11 9 12 14 F

