%nprocshared=1
%mem=2GB
#HF/6-31G* nosymm scf=tight 
prop=(read,field)

Mol

0 1
H	 1.148301	 -1.049880	 0.784253
O	 1.319480	 -0.618248	 -0.041728
C	 0.709483	 0.639450	 -0.033817
C	 -0.793223	 0.595980	 0.058729
H	 1.003528	 1.123964	 -0.957931
H	 1.099596	 1.253672	 0.777089
C	 -1.530244	 -0.493272	 -0.025499
H	 -1.268253	 1.554224	 0.202248
H	 -1.092368	 -1.461665	 -0.186462
H	 -2.601904	 -0.450775	 0.050102

@grid.dat /N
