%nprocshared=1
%mem=2GB
#HF/6-31G* nosymm scf=tight 

Mol

0 1
O	 -2.042549	 -1.228399	 -0.269030
C	 -1.653912	 -0.146171	 0.050137
C	 -0.332303	 0.024011	 0.778412
C	 -2.438579	 1.106236	 -0.272369
C	 0.845713	 -0.001731	 -0.208243
H	 -0.323783	 0.953829	 1.340327
H	 -0.235459	 -0.796807	 1.480410
C	 1.806438	 -1.162927	 0.051877
H	 1.394178	 0.936886	 -0.151077
H	 0.450591	 -0.070237	 -1.217365
C	 1.085049	 -2.497919	 0.232439
H	 2.511208	 -1.240926	 -0.773132
H	 2.396207	 -0.947209	 0.939686
H	 0.512750	 -2.758105	 -0.653467
H	 0.396536	 -2.460578	 1.071485
H	 1.790248	 -3.301781	 0.418251
H	 -3.277823	 0.863061	 -0.908988
H	 -1.806773	 1.843019	 -0.759671
H	 -2.802853	 1.554979	 0.648059

11 8 5 9 F

5 3 2 4 F

