%nprocshared=1
%mem=2GB
#HF/6-31G* nosymm scf=tight 

Mol

0 1
H	 -3.420663	 1.227371	 -1.044276
O	 -3.452007	 0.283848	 -0.965577
C	 -3.181085	 -0.079926	 0.364119
C	 -1.765924	 0.277073	 0.805136
H	 -3.327791	 -1.152017	 0.410903
H	 -3.905698	 0.375695	 1.036898
C	 -0.677594	 -0.417312	 -0.014550
H	 -1.637766	 1.358238	 0.744969
H	 -1.659588	 0.017670	 1.857098
C	 0.738335	 -0.034840	 0.421385
H	 -0.814977	 -0.178223	 -1.064632
H	 -0.802730	 -1.495410	 0.071702
C	 1.757019	 -0.134998	 -0.717182
H	 0.724553	 0.976903	 0.819639
H	 1.052110	 -0.681021	 1.240287
C	 2.021895	 -1.559624	 -1.217619
H	 2.696869	 0.313699	 -0.399302
H	 1.403616	 0.464190	 -1.553781
C	 2.817439	 -1.637803	 -2.521997
H	 1.065821	 -2.056753	 -1.362796
H	 2.540892	 -2.121890	 -0.443861
H	 2.328260	 -1.073487	 -3.311547
H	 2.905882	 -2.666278	 -2.858530
H	 3.822749	 -1.245651	 -2.409156

20 16 13 17 F

17 13 10 7 F

11 7 4 3 F

1 2 3 5 F

7 4 3 2 F

