%nprocshared=1
%mem=2GB
#HF/6-31G* nosymm scf=tight 

Mol

0 1
O	 1.408985	 2.058496	 0.295126
C	 0.408908	 2.372634	 0.855735
C	 -0.888324	 1.601482	 0.836247
O	 0.304476	 3.470329	 1.594178
C	 -0.823008	 0.326187	 0.001381
H	 -1.152162	 1.383844	 1.867624
H	 -1.659786	 2.273104	 0.469518
C	 -2.149452	 -0.435131	 -0.000098
H	 -0.032084	 -0.311353	 0.383703
H	 -0.541358	 0.578829	 -1.016044
C	 -3.368779	 0.488503	 -0.000883
H	 -2.193746	 -1.087250	 -0.871175
H	 -2.195311	 -1.087803	 0.870418
C	 -3.346354	 1.505125	 -1.141597
H	 -3.422266	 1.013619	 0.950187
H	 -4.273627	 -0.111280	 -0.069069
H	 -2.469560	 2.143689	 -1.080920
H	 -4.223185	 2.144600	 -1.115337
H	 -3.327221	 1.009791	 -2.108339
C	 1.456529	 4.286992	 1.698054
H	 2.273105	 3.737285	 2.143648
H	 1.175040	 5.115501	 2.329095
H	 1.758504	 4.643908	 0.723925

15 11 8 12 F

1 2 3 6 F

9 5 3 6 F

1 2 4 20 F

