%nprocshared=1
%mem=2GB
#HF/6-31G* nosymm scf=tight 

Mol

0 1
H	 -3.587922	 0.388832	 1.480711
O	 -3.703134	 0.151782	 2.389339
C	 -3.801575	 -1.244949	 2.505545
C	 -2.472436	 -1.961029	 2.292598
H	 -4.160898	 -1.432162	 3.509295
H	 -4.550962	 -1.632778	 1.816497
C	 -1.305506	 -1.352658	 3.074281
H	 -2.594238	 -3.004376	 2.571806
H	 -2.243781	 -1.942015	 1.228304
C	 -0.913004	 0.036978	 2.564700
H	 -0.448527	 -2.017506	 3.011591
H	 -1.572802	 -1.283987	 4.128879
C	 -2.087810	 0.996018	 2.340165
H	 -0.208467	 0.487877	 3.261237
H	 -0.377692	 -0.077652	 1.624486
C	 -3.034785	 0.600176	 1.203932
H	 -2.660443	 1.056917	 3.263311
H	 -1.703568	 1.998317	 2.156886
C	 -4.465221	 1.099239	 1.418936
H	 -3.044660	 -0.484477	 1.106250
H	 -2.666261	 0.987989	 0.257311
C	 -5.411106	 0.710962	 0.283063
H	 -4.847259	 0.703375	 2.357459
H	 -4.456195	 2.181939	 1.526468
H	 -5.467273	 -0.368187	 0.171231
H	 -6.416738	 1.077069	 0.465559
H	 -5.076338	 1.123259	 -0.664726

14 10 7 4 F

14 10 13 16 F

10 7 4 8 F

8 4 3 2 F

20 16 19 22 F

4 3 2 1 F

