%nprocshared=1
%mem=2GB
#HF/6-31G* nosymm scf=tight 

Mol

0 1
H	 -2.717220	 0.086995	 0.952871
O	 -1.816454	 0.073926	 0.663871
C	 -1.769926	 0.045570	 -0.740082
C	 -2.152692	 1.374928	 -1.381192
H	 -0.747809	 -0.202623	 -0.995721
H	 -2.402563	 -0.752810	 -1.126268
C	 -1.456720	 2.588583	 -0.760277
H	 -1.922022	 1.325173	 -2.442174
H	 -3.231564	 1.494083	 -1.296312
C	 -1.923441	 2.869862	 0.670761
H	 -1.640821	 3.461632	 -1.380163
H	 -0.378741	 2.426412	 -0.758991
C	 -1.976855	 1.639740	 1.584154
H	 -1.275397	 3.621806	 1.117378
H	 -2.916754	 3.311890	 0.630231
C	 -3.034785	 0.600176	 1.203932
H	 -0.999850	 1.161115	 1.570226
H	 -2.140370	 1.961744	 2.611488
C	 -4.465221	 1.099239	 1.418936
H	 -2.878261	 -0.302994	 1.792061
H	 -2.917052	 0.309925	 0.162685
C	 -5.411106	 0.710962	 0.283063
H	 -4.847259	 0.703375	 2.357459
H	 -4.456195	 2.181939	 1.526468
H	 -5.467273	 -0.368187	 0.171231
H	 -6.416738	 1.077069	 0.465559
H	 -5.076338	 1.123259	 -0.664726

14 10 7 4 F

14 10 13 16 F

10 7 4 8 F

8 4 3 2 F

10 13 16 20 F

4 3 2 1 F

