%nprocshared=1
%mem=2GB
#HF/6-31G* nosymm scf=tight 

Mol

0 1
H	 -0.000158	 1.970498	 0.756846
O	 -0.000074	 1.880206	 -0.189275
C	 -0.000015	 0.544847	 -0.545111
C	 1.201481	 -0.158198	 0.077884
C	 -0.077133	 0.412093	 -2.062486
H	 -0.890506	 0.093628	 -0.133370
F	 1.139674	 -0.061407	 1.388744
F	 1.249103	 -1.435890	 -0.234516
F	 2.332428	 0.405349	 -0.315780
F	 -1.183201	 0.974938	 -2.499928
F	 -0.077060	 -0.844536	 -2.453974
F	 0.943680	 1.024573	 -2.640748

7 4 3 6 F

