%nprocshared=1
%mem=2GB
#HF/6-31G* nosymm scf=tight 

Mol

0 1
H	 -3.571158	 0.540474	 0.139285
O	 -3.106200	 -0.271124	 -0.011510
C	 -1.775819	 -0.076055	 -0.001477
C	 -1.108863	 0.429058	 1.110742
C	 -1.074349	 -0.399911	 -1.156086
H	 -1.660058	 0.677528	 2.001673
C	 0.257689	 0.608368	 1.063792
H	 -1.611263	 -0.787890	 -2.000756
C	 0.292117	 -0.214954	 -1.187650
H	 0.785119	 0.997207	 1.914510
C	 0.974481	 0.288904	 -0.084866
H	 0.836187	 -0.465765	 -2.082158
C	 2.437211	 0.481444	 -0.133461
O	 3.146490	 0.080523	 -1.003486
H	 2.858055	 1.037883	 0.710595

7 11 13 14 F

