%nprocshared=1
%mem=2GB
#HF/6-31G* nosymm scf=tight 

Mol

0 1
H	 1.693583	 -0.994824	 0.920885
C	 0.825124	 -1.094776	 0.284415
O	 0.000000	 0.000000	 0.521119
H	 1.151592	 -1.131000	 -0.753754
H	 0.322101	 -2.031471	 0.519491
C	 -1.165642	 0.000000	 -0.238270
H	 -1.228672	 0.883184	 -0.872070
H	 -2.003012	 0.000000	 0.445920
H	 -1.228672	 -0.883184	 -0.872070
