%nprocshared=1
%mem=2GB
#HF/6-31G* nosymm scf=tight 

Mol

0 1
H	 2.572941	 1.171310	 1.437629
N	 1.697068	 0.686418	 1.402451
C	 1.267428	 0.496480	 0.024474
H	 1.034677	 1.248693	 1.902451
C	 -0.016086	 -0.325158	 -0.029487
H	 2.056732	 -0.037060	 -0.496456
H	 1.118356	 1.436842	 -0.512066
C	 -1.282277	 0.529072	 0.046735
H	 -0.012495	 -0.908639	 -0.945788
H	 -0.015903	 -1.041248	 0.791956
C	 -2.563920	 -0.301775	 -0.006060
H	 -1.284084	 1.244622	 -0.773004
H	 -1.271387	 1.115393	 0.963286
H	 -2.621848	 -0.873522	 -0.927727
H	 -3.445135	 0.329952	 0.047812
H	 -2.609542	 -1.004582	 0.821105

12 8 5 9 F

1 2 3 6 F

