%nprocshared=1
%mem=2GB
#HF/6-31G* nosymm scf=tight 

Mol

0 1
H	 1.580948	 1.091045	 1.093777
C	 0.701172	 1.200664	 0.474678
O	 0.000000	 0.000000	 0.521119
H	 0.102958	 2.026811	 0.855871
H	 1.012677	 1.441536	 -0.540524
C	 -1.165642	 0.000000	 -0.238270
H	 -1.228672	 0.883184	 -0.872070
H	 -2.003012	 0.000000	 0.445920
H	 -1.228672	 -0.883184	 -0.872070
