%nprocshared=1
%mem=2GB
#HF/6-31G* nosymm scf=tight 

Mol

0 1
H	 1.878711	 -5.235501	 4.568037
C	 2.000782	 -5.846029	 3.678725
C	 3.398559	 -6.460632	 3.618253
H	 1.236843	 -6.617582	 3.699809
H	 1.810256	 -5.214546	 2.815169
C	 3.606860	 -7.323207	 2.371501
H	 3.564207	 -7.062164	 4.506128
H	 4.141994	 -5.665170	 3.633613
C	 3.154806	 -6.650725	 1.075090
H	 4.654445	 -7.588773	 2.283851
H	 3.052978	 -8.252299	 2.485711
C	 4.042689	 -5.500774	 0.622850
H	 3.153431	 -7.378272	 0.264878
H	 2.128439	 -6.299873	 1.156641
C	 3.475324	 -4.538016	 -0.405696
O	 5.152384	 -5.364481	 1.042858
C	 3.142513	 -5.197708	 -1.752249
H	 4.209686	 -3.753667	 -0.544347
H	 2.575468	 -4.083871	 0.005028
C	 3.906992	 -6.506058	 -1.962969
H	 2.073565	 -5.394231	 -1.800676
H	 3.371148	 -4.517137	 -2.568350
C	 3.584233	 -7.172245	 -3.299729
H	 3.675183	 -7.191428	 -1.151430
H	 4.975620	 -6.311267	 -1.903941
H	 2.526789	 -7.408725	 -3.374670
H	 3.837980	 -6.523738	 -4.133494
H	 4.139105	 -8.097216	 -3.419829

10 6 3 2 F

16 12 15 17 F

