%nprocshared=1
%mem=2GB
#HF/6-31G* nosymm scf=tight 

Mol

0 1
H	 -2.646374	 -0.642757	 1.268656
C	 -2.083525	 -0.384536	 0.393091
O	 -0.807605	 -0.127164	 0.768327
F	 -2.118945	 -1.383102	 -0.486752
F	 -2.621877	 0.670592	 -0.209486
C	 -0.307461	 -0.808120	 1.863243
C	 -0.575560	 -2.288751	 1.626564
Cl	 -1.089168	 -0.263481	 3.356399
H	 0.753216	 -0.671025	 1.981319
F	 -1.866439	 -2.537646	 1.688372
F	 0.021198	 -2.984721	 2.573636
F	 -0.122503	 -2.694137	 0.465369

10 7 6 9 F

9 6 3 2 F

