%nprocshared=24
%mem=2GB
#HF/6-31G* nosymm scf=tight 

Mol

0 1
H	 -2.463887	 -1.404751	 3.174456
C	 -2.393282	 -1.145213	 2.135980
C	 -1.224516	 -1.150904	 1.538115
H	 -3.292956	 -0.884230	 1.609638
O	 -0.830365	 -2.175383	 0.737085
H	 -0.521685	 -0.342308	 1.629937
C	 0.480300	 -2.189594	 0.286099
C	 0.685917	 -1.229764	 -0.864112
H	 0.794560	 -3.175748	 -0.037489
H	 1.112303	 -1.870061	 1.100955
F	 -0.060584	 -0.150997	 -0.677098
F	 1.944842	 -0.834999	 -0.954529
F	 0.347266	 -1.762298	 -2.019549

11 8 7 9 F

3 5 7 9 F

6 3 5 7 F

