%nprocshared=1
%mem=2GB
#HF/6-31G* nosymm scf=tight 

Mol

0 1
O	 -1.487788	 1.240889	 -0.102860
C	 -1.083277	 0.139568	 0.115197
C	 0.323299	 -0.082943	 0.642902
C	 -1.933017	 -1.084621	 -0.143902
C	 1.355627	 -0.005344	 -0.493127
H	 0.396251	 -1.044647	 1.143147
H	 0.528637	 0.693580	 1.371677
C	 1.314321	 1.334495	 -1.225502
H	 2.354271	 -0.167283	 -0.093428
H	 1.163676	 -0.814295	 -1.190188
H	 2.047121	 1.362138	 -2.025459
H	 1.527828	 2.158956	 -0.551334
H	 0.336741	 1.509323	 -1.664613
H	 -1.393885	 -1.806447	 -0.750509
H	 -2.850323	 -0.799888	 -0.640100
H	 -2.169004	 -1.571158	 0.798858

4 2 3 5 F

