%nprocshared=1
%mem=2GB
#HF/6-31G* nosymm scf=tight 

Mol

0 1
O	 0.010563	 0.573344	 -1.710802
C	 -0.288497	 -0.253868	 -0.912267
C	 -1.641221	 -0.902144	 -0.800718
O	 0.550821	 -0.724572	 0.000672
H	 -1.544410	 -1.974627	 -0.923565
H	 -2.298567	 -0.500415	 -1.557291
H	 -2.053768	 -0.720366	 0.184848
C	 1.863949	 -0.193559	 -0.000319
H	 2.028859	 0.409284	 -0.881648
H	 2.526261	 -1.045082	 -0.000003
H	 2.029520	 0.410555	 0.880008

8 4 2 1 F

