%nprocshared=1
%mem=2GB
#HF/6-31G* nosymm scf=tight 

Mol

0 1
O	 1.589248	 1.496385	 -0.529439
C	 0.788116	 1.716284	 -1.379704
C	 -0.184294	 0.713290	 -1.950922
O	 0.640172	 2.906476	 -1.947763
C	 -0.904792	 -0.107244	 -0.885440
H	 -0.889660	 1.261106	 -2.569849
H	 0.371195	 0.073840	 -2.631550
C	 -1.584244	 0.773331	 0.164318
H	 -0.194117	 -0.772370	 -0.405090
H	 -1.640638	 -0.746448	 -1.363202
C	 -0.593636	 1.419122	 1.134632
H	 -2.159317	 1.553541	 -0.332230
H	 -2.302007	 0.179312	 0.728092
C	 0.509672	 2.204094	 0.426268
H	 -0.145715	 0.647699	 1.757059
H	 -1.131680	 2.080947	 1.809638
H	 1.088560	 1.561278	 -0.230915
H	 1.195244	 2.649792	 1.140268
H	 0.094679	 3.005691	 -0.178326
C	 1.792514	 3.724689	 -2.034891
H	 2.180449	 3.940881	 -1.049855
H	 1.472688	 4.634305	 -2.518819
H	 2.560106	 3.239076	 -2.620117

15 11 8 12 F

9 5 8 12 F

1 2 3 6 F

9 5 3 6 F

