%nprocshared=1
%mem=2GB
#HF/6-31G* nosymm scf=tight 

Mol

0 1
H	 2.866480	 -0.465706	 0.876907
C	 2.405773	 -0.024801	 0.000000
N	 0.988830	 -0.304158	 0.000000
H	 2.866480	 -0.465706	 -0.876907
H	 2.629928	 1.045948	 0.000000
C	 0.644740	 -1.419478	 0.862341
C	 0.465587	 -0.510787	 -1.337718
H	 1.127861	 -2.345665	 0.534821
H	 0.987175	 -1.207372	 1.870307
C	 -0.862149	 -1.617553	 0.868896
H	 0.676838	 0.366704	 -1.940735
H	 0.935653	 -1.370758	 -1.825555
C	 -1.036551	 -0.732959	 -1.272820
H	 -1.130129	 -2.499549	 1.435717
H	 -1.341820	 -0.753004	 1.324352
O	 -1.347831	 -1.806928	 -0.430413
H	 -1.430325	 -0.976905	 -2.250803
H	 -1.524428	 0.173209	 -0.918129
