%nprocshared=1
%mem=2GB
#HF/6-31G* nosymm scf=tight 

Mol

0 1
O	 0.391030	 1.298905	 0.000133
C	 0.503002	 0.111612	 0.000005
C	 -0.702327	 -0.811998	 -0.000075
C	 1.863306	 -0.554493	 0.000030
C	 -2.000238	 -0.122010	 -0.401940
H	 -0.484676	 -1.644959	 -0.666089
H	 -0.788010	 -1.249261	 0.993013
H	 -1.926432	 0.292686	 -1.399837
H	 -2.824342	 -0.827559	 -0.384338
H	 -2.232457	 0.691891	 0.273974
H	 1.974395	 -1.189404	 -0.874166
H	 2.638695	 0.198920	 -0.000196
H	 1.974487	 -1.188655	 0.874727
