%nprocshared=1
%mem=2GB
#HF/6-31G* nosymm scf=tight 

Mol

0 1
H	 -3.483589	 0.199660	 1.459659
O	 -3.431142	 -0.236088	 2.297779
C	 -3.171399	 -1.603387	 2.105208
C	 -1.741642	 -1.886432	 1.657542
H	 -3.355098	 -2.075433	 3.061817
H	 -3.878184	 -2.029031	 1.393828
C	 -0.675957	 -1.161181	 2.482886
H	 -1.571749	 -2.958981	 1.703814
H	 -1.649706	 -1.595436	 0.612441
C	 -0.696527	 0.355548	 2.273296
H	 0.304160	 -1.550311	 2.221514
H	 -0.827629	 -1.377667	 3.540463
C	 -2.087810	 0.996018	 2.340165
H	 -0.047451	 0.827401	 3.008757
H	 -0.262318	 0.576399	 1.300471
C	 -3.034785	 0.600176	 1.203932
H	 -2.546812	 0.718042	 3.286665
H	 -1.983877	 2.079786	 2.362123
C	 -4.465221	 1.099239	 1.418936
H	 -3.044660	 -0.484477	 1.106250
H	 -2.666261	 0.987989	 0.257311
C	 -5.411106	 0.710962	 0.283063
H	 -4.847259	 0.703375	 2.357459
H	 -4.456195	 2.181939	 1.526468
H	 -5.467273	 -0.368187	 0.171231
H	 -6.416738	 1.077069	 0.465559
H	 -5.076338	 1.123259	 -0.664726

14 10 7 4 F

14 10 13 16 F

10 7 4 8 F

8 4 3 2 F

20 16 19 22 F

4 3 2 1 F

