%nprocshared=1
%mem=2GB
#HF/6-31G* nosymm scf=tight 

Mol

0 1
O	 0.192199	 1.381034	 -0.407279
C	 0.788116	 1.716284	 -1.379704
C	 1.790685	 0.873483	 -2.129643
O	 0.640172	 2.906476	 -1.947763
C	 1.310265	 -0.550700	 -2.391447
H	 2.018205	 1.389309	 -3.058553
H	 2.713183	 0.878555	 -1.555456
C	 -0.054536	 -0.585355	 -3.080778
H	 1.262426	 -1.090494	 -1.450957
H	 2.044325	 -1.069576	 -2.999915
C	 -1.207149	 -0.221602	 -2.143215
H	 -0.052025	 0.099518	 -3.927501
H	 -0.228512	 -1.577909	 -3.493634
C	 -1.006435	 1.122659	 -1.444696
H	 -1.322767	 -1.003477	 -1.395924
H	 -2.136472	 -0.200168	 -2.708049
H	 -0.101776	 1.121086	 -0.843194
H	 -1.839538	 1.352368	 -0.787716
H	 -0.921482	 1.930774	 -2.165837
C	 1.792514	 3.724689	 -2.034891
H	 2.180449	 3.940881	 -1.049855
H	 1.472688	 4.634305	 -2.518819
H	 2.560106	 3.239076	 -2.620117

15 11 8 12 F

9 5 8 12 F

1 2 3 6 F

9 5 3 6 F

