%nprocshared=24
%mem=2GB
#HF/6-31G* nosymm scf=tight 

Mol

0 1
H	 -2.521385	 1.345167	 2.323776
C	 -2.417090	 0.454422	 1.735255
C	 -1.342087	 0.276392	 1.002675
H	 -3.204990	 -0.274512	 1.763161
O	 -1.180634	 -0.819263	 0.215062
H	 -0.538630	 0.990773	 0.966481
C	 0.051604	 -1.018856	 -0.387932
C	 1.043764	 0.054862	 -0.001873
H	 -0.017620	 -1.041351	 -1.469781
H	 0.437898	 -1.966374	 -0.042284
F	 0.990529	 0.254188	 1.307035
F	 2.284001	 -0.290991	 -0.305236
F	 0.789209	 1.201364	 -0.597797

11 8 7 9 F

6 3 2 1 F

6 3 5 7 F

