%nprocshared=1
%mem=2GB
#HF/6-31G* nosymm scf=tight 

Mol

0 1
H	 2.591676	 2.013956	 0.335017
O	 3.341076	 1.666752	 -0.126416
C	 3.569581	 0.339145	 0.272707
C	 2.539767	 -0.640285	 -0.279495
H	 4.553106	 0.084646	 -0.100901
H	 3.608576	 0.269204	 1.359154
C	 1.115811	 -0.397273	 0.226630
H	 2.556196	 -0.582511	 -1.364741
H	 2.852081	 -1.648031	 -0.010655
C	 0.115918	 -1.429151	 -0.302766
H	 0.797950	 0.599468	 -0.066350
H	 1.109961	 -0.420744	 1.316472
C	 0.665876	 -2.854976	 -0.424875
H	 -0.763978	 -1.436507	 0.337996
H	 -0.226843	 -1.107225	 -1.283877
C	 1.012927	 -3.528023	 0.905930
H	 -0.074965	 -3.464142	 -0.938574
H	 1.546433	 -2.846906	 -1.065494
C	 1.456769	 -4.983005	 0.740193
H	 0.145915	 -3.490696	 1.563962
H	 1.802118	 -2.975549	 1.410164
C	 1.809940	 -5.655247	 2.066475
H	 0.666252	 -5.546757	 0.249525
H	 2.317057	 -5.023215	 0.075231
H	 0.959307	 -5.660249	 2.742213
H	 2.118507	 -6.685188	 1.915998
H	 2.623635	 -5.136084	 2.565207

14 10 13 16 F

10 7 4 8 F

8 4 3 2 F

10 13 16 20 F

20 16 19 22 F

4 3 2 1 F

