%nprocshared=1
%mem=2GB
#HF/6-31G* nosymm scf=tight 

Mol

0 1
O	 1.825465	 1.324323	 -0.951462
C	 0.788116	 1.716284	 -1.379704
C	 -0.516134	 0.957269	 -1.353318
O	 0.640172	 2.906476	 -1.947763
C	 -0.823008	 0.326187	 0.001381
H	 -1.299814	 1.647936	 -1.652547
H	 -0.470175	 0.205508	 -2.136556
C	 -1.354431	 -1.101831	 -0.130585
H	 -1.546046	 0.941848	 0.527088
H	 0.075900	 0.330690	 0.609864
C	 -2.796207	 -1.158538	 -0.638448
H	 -0.714354	 -1.667297	 -0.806267
H	 -1.294857	 -1.602837	 0.834468
C	 -2.996801	 -0.401012	 -1.950381
H	 -3.460507	 -0.750146	 0.119880
H	 -3.089138	 -2.197449	 -0.772585
H	 -2.744839	 0.649874	 -1.839166
H	 -4.028014	 -0.459899	 -2.284422
H	 -2.370119	 -0.808683	 -2.738660
C	 1.792514	 3.724689	 -2.034891
H	 2.180449	 3.940881	 -1.049855
H	 1.472688	 4.634305	 -2.518819
H	 2.560106	 3.239076	 -2.620117

15 11 8 12 F

9 5 8 12 F

1 2 3 6 F

1 2 4 20 F

