%nprocshared=1
%mem=2GB
#HF/6-31G* nosymm scf=tight 

Mol

0 1
O	 -0.806752	 -1.114546	 1.082146
C	 -0.561929	 -0.074560	 0.531515
C	 -1.597472	 1.034011	 0.503089
N	 0.623947	 0.147590	 -0.102813
H	 -1.868528	 1.298769	 -0.513038
H	 -2.472791	 0.671041	 1.019920
H	 -1.237628	 1.928840	 0.999450
C	 0.611394	 0.840760	 -1.376090
C	 1.853675	 -0.545507	 0.212830
H	 1.627158	 1.093000	 -1.660018
H	 0.030826	 1.742460	 -1.287663
H	 0.180738	 0.220633	 -2.159288
H	 2.691503	 0.114288	 0.021118
H	 1.893696	 -0.829725	 1.252326
H	 1.984252	 -1.438739	 -0.395364

2 4 8 10 F

