%nprocshared=24
%mem=2GB
#HF/6-31G* nosymm scf=tight 

Mol

0 1
H	 -2.455504	 -1.062989	 3.255514
C	 -2.425350	 -0.963885	 2.187839
C	 -1.271134	 -0.975404	 1.562018
H	 -3.351856	 -0.856911	 1.655811
O	 -0.099532	 -0.735255	 2.207414
H	 -1.181311	 -1.193232	 0.512409
C	 1.051251	 -0.591572	 1.447873
C	 1.454981	 -1.892973	 0.792394
H	 1.890390	 -0.234376	 2.034347
H	 0.842273	 0.122586	 0.665062
F	 0.389130	 -2.461510	 0.247846
F	 2.343979	 -1.703337	 -0.168622
F	 1.971759	 -2.742599	 1.655798

11 8 7 9 F

3 5 7 9 F

6 3 5 7 F

