%nprocshared=1
%mem=2GB
#HF/6-31G* nosymm scf=tight 

Mol

0 1
H	 3.093496	 -1.573221	 -1.321578
O	 2.441625	 -1.548148	 -0.627899
C	 1.688107	 -0.463589	 -0.807784
C	 0.624473	 -0.343591	 0.253101
O	 1.869465	 0.288858	 -1.708866
C	 -0.265902	 0.883932	 0.072916
H	 0.054889	 -1.266995	 0.236646
H	 1.130435	 -0.323901	 1.215061
C	 -1.728698	 0.646073	 0.462102
H	 -0.209144	 1.219470	 -0.958188
H	 0.135059	 1.692851	 0.673903
C	 -2.482460	 -0.343073	 -0.431425
H	 -2.245265	 1.602650	 0.432430
H	 -1.779332	 0.308348	 1.496285
C	 -1.702028	 -1.636640	 -0.663995
H	 -3.442321	 -0.577621	 0.024314
H	 -2.703274	 0.112617	 -1.393178
H	 -2.254905	 -2.320309	 -1.300578
H	 -1.500470	 -2.146665	 0.273595
H	 -0.747443	 -1.437595	 -1.142937

16 12 9 6 F

12 9 6 10 F

5 3 4 7 F

1 2 3 5 F

