%nprocshared=1
%mem=2GB
#HF/6-31G* nosymm scf=tight 

Mol

0 1
H	 -4.310883	 1.867417	 -0.484934
N	 -3.398416	 1.844148	 -0.072131
C	 -3.160382	 0.565408	 0.581849
H	 -3.363453	 2.591524	 0.594980
C	 -1.736743	 0.496698	 1.124330
H	 -3.299423	 -0.215094	 -0.160003
H	 -3.866566	 0.358609	 1.389894
C	 -0.679275	 0.379305	 0.025956
H	 -1.556024	 1.382524	 1.726399
H	 -1.653257	 -0.356037	 1.797538
C	 -0.791153	 1.473151	 -1.037697
H	 -0.763695	 -0.594791	 -0.453480
H	 0.313973	 0.414164	 0.471029
C	 -2.115055	 2.234023	 -0.975523
H	 0.033362	 2.173024	 -0.921214
H	 -0.676491	 1.028719	 -2.024099
H	 -2.243718	 2.718807	 -0.011807
H	 -2.163946	 3.002377	 -1.740928
H	 -2.958889	 1.565841	 -1.123406

6 3 5 9 F

12 8 5 9 F

1 2 3 6 F

