%nprocshared=1
%mem=2GB
#HF/6-31G* nosymm scf=tight 

Mol

0 1
H	 -1.913969	 -3.396048	 -0.338704
O	 -2.330818	 -2.840912	 -0.982481
C	 -2.348235	 -1.516000	 -0.522814
C	 -0.990592	 -1.101841	 0.016578
H	 -2.658323	 -0.825112	 -1.301837
H	 -3.081373	 -1.468283	 0.270081
O	 -0.043959	 -1.331029	 -0.978982
H	 -0.751887	 -1.678011	 0.912697
H	 -1.015548	 -0.051699	 0.301469
C	 -0.381609	 -0.813417	 -2.226865
H	 0.366496	 -0.106062	 -2.579876
H	 -0.435693	 -1.641239	 -2.920182
H	 -1.346371	 -0.311084	 -2.200645

8 4 3 5 F

1 2 3 5 F

10 7 4 8 F

