%nprocshared=1
%mem=2GB
#HF/6-31G* nosymm scf=tight 

Mol

0 1
H	 3.130066	 1.614511	 -1.676663
O	 2.636091	 1.344862	 -0.915623
C	 1.409307	 2.027868	 -0.882511
C	 0.645275	 1.571400	 0.347789
H	 1.571051	 3.104244	 -0.842989
H	 0.829621	 1.818049	 -1.780442
C	 0.198102	 0.111031	 0.262842
H	 -0.217020	 2.220247	 0.474965
H	 1.278567	 1.719770	 1.218080
C	 1.331804	 -0.827780	 -0.158768
H	 -0.199092	 -0.197731	 1.226728
H	 -0.621287	 0.022526	 -0.449398
C	 2.723619	 -0.410569	 0.329459
H	 1.342964	 -0.912588	 -1.244120
H	 1.116806	 -1.824343	 0.220779
C	 3.243875	 0.895854	 -0.272975
H	 3.424222	 -1.207124	 0.091250
H	 2.714788	 -0.329854	 1.414619
H	 3.251977	 0.848779	 -1.358681
H	 2.637085	 1.747371	 0.016682
H	 4.259473	 1.094070	 0.055697

2 3 4 8 F

8 4 7 10 F

16 13 10 14 F

1 2 3 5 F

