%nprocshared=1
%mem=2GB
#HF/6-31G* nosymm scf=tight 

Mol

0 1
O	 -0.682937	 1.318834	 -0.186099
C	 -0.860635	 0.152188	 -0.042321
C	 -2.173363	 -0.477127	 0.338347
O	 0.083258	 -0.765189	 -0.202595
H	 -2.477673	 -1.180929	 -0.427595
H	 -2.923125	 0.290956	 0.455536
H	 -2.058825	 -1.029004	 1.264191
C	 1.391937	 -0.334737	 -0.569838
C	 2.462784	 -1.174355	 0.101710
H	 1.502992	 0.710928	 -0.326135
H	 1.424451	 -0.452057	 -1.643467
H	 3.442958	 -0.873213	 -0.255084
H	 2.437497	 -1.044443	 1.176350
H	 2.324206	 -2.225050	 -0.129052

8 4 2 1 F

