%nprocshared=1
%mem=2GB
#HF/6-31G* nosymm scf=tight 

Mol

0 1
H	 -2.267800	 -0.942858	 0.774600
O	 -2.359850	 -0.312617	 0.074093
C	 -1.202646	 0.475637	 -0.006669
C	 0.051073	 -0.380045	 0.034122
H	 -1.197171	 1.089593	 -0.902987
H	 -1.214505	 1.139238	 0.846527
O	 -0.043959	 -1.331029	 -0.978982
H	 0.142084	 -0.865016	 1.008032
H	 0.928178	 0.250440	 -0.099136
C	 -0.381609	 -0.813417	 -2.226865
H	 0.366496	 -0.106062	 -2.579876
H	 -0.435693	 -1.641239	 -2.920182
H	 -1.346371	 -0.311084	 -2.200645

8 4 3 5 F

1 2 3 5 F

10 7 4 8 F

