%nprocshared=1
%mem=2GB
#HF/6-31G* nosymm scf=tight 

Mol

0 1
O	 -0.460091	 -0.557105	 1.951918
C	 0.577085	 -0.818978	 1.433507
C	 1.245376	 -0.013843	 0.345420
O	 1.300572	 -1.884271	 1.754984
C	 0.455112	 1.231400	 -0.050772
H	 2.241827	 0.231668	 0.697554
H	 1.385927	 -0.675195	 -0.505789
C	 -0.998893	 1.219485	 0.433193
H	 0.482531	 1.345121	 -1.130325
H	 0.957290	 2.103070	 0.354729
C	 -1.883438	 0.145884	 -0.207175
H	 -1.431207	 2.195402	 0.224832
H	 -1.019646	 1.105716	 1.516076
C	 -1.236535	 -1.240640	 -0.198954
H	 -2.833649	 0.102377	 0.322943
H	 -2.118527	 0.417480	 -1.233792
C	 -0.020065	 -1.347398	 -1.120331
H	 -1.975420	 -1.984108	 -0.493128
H	 -0.939381	 -1.493338	 0.817680
C	 0.966107	 -0.193248	 -0.943964
H	 0.490757	 -2.289749	 -0.934115
H	 -0.353923	 -1.381133	 -2.155309
H	 1.816977	 -0.297053	 -1.610185
H	 1.345510	 -0.153780	 0.073234
H	 0.494066	 0.761820	 -1.156791
C	 0.784347	 -2.730194	 2.766325
H	 0.672997	 -2.188594	 3.694643
H	 1.504031	 -3.525672	 2.881548
H	 -0.174561	 -3.132429	 2.472657

21 17 14 11 F

17 14 11 15 F

15 11 8 5 F

11 8 5 9 F

2 4 26 27 F

1 2 4 26 F

6 3 2 1 F

