%nprocshared=1
%mem=2GB
#HF/6-31G* nosymm scf=tight 

Mol

0 1
H	 -1.070890	 -1.366565	 0.180696
O	 -1.422729	 -0.573567	 -0.196946
C	 -0.731407	 0.539437	 0.309156
C	 0.680193	 0.672443	 -0.251532
H	 -1.319765	 1.404033	 0.030086
H	 -0.700012	 0.506517	 1.397677
C	 0.727367	 0.770856	 -1.776587
H	 1.144815	 1.551249	 0.186044
H	 1.258786	 -0.189281	 0.074352
H	 0.219607	 1.662359	 -2.132394
H	 1.750980	 0.822115	 -2.132333
H	 0.260014	 -0.093031	 -2.243003

1 2 3 4 F

