%nprocshared=1
%mem=2GB
#HF/6-31G* nosymm scf=tight 

Mol

0 1
H	 1.089831	 -0.630516	 0.903798
C	 1.013990	 -0.280211	 -0.133139
C	 0.065331	 0.871482	 -0.349150
O	 1.656158	 -0.799657	 -0.987256
C	 -1.339775	 0.583656	 0.198860
H	 0.038785	 1.098558	 -1.408699
H	 0.482638	 1.734062	 0.168510
C	 -1.808407	 -0.848507	 -0.061364
H	 -2.036183	 1.280685	 -0.256307
H	 -1.360094	 0.788874	 1.267089
H	 -1.828843	 -1.063152	 -1.125336
H	 -2.808409	 -1.004529	 0.329750
H	 -1.153967	 -1.577789	 0.406873

6 3 2 4 F

