%nprocshared=1
%mem=2GB
#HF/6-31G* nosymm scf=tight 

Mol

0 1
H	 2.469094	 0.095677	 -1.787912
O	 1.621803	 0.468022	 -1.590062
C	 1.405354	 0.439968	 -0.201707
C	 0.031547	 1.023609	 0.088541
H	 2.161424	 1.029737	 0.313482
H	 1.477152	 -0.577827	 0.175174
C	 -1.134819	 0.293262	 -0.585751
H	 0.033261	 2.060739	 -0.234949
H	 -0.111584	 1.029848	 1.167750
C	 -1.917817	 -0.639439	 0.339494
H	 -0.758119	 -0.268455	 -1.433105
H	 -1.813832	 1.041889	 -0.986690
H	 -2.777680	 -1.057197	 -0.174994
H	 -1.310268	 -1.471279	 0.680599
H	 -2.283753	 -0.111424	 1.216626

2 3 4 8 F

1 2 3 4 F

