%nprocshared=1
%mem=2GB
#HF/6-31G* nosymm scf=tight 

Mol

0 1
O	 -0.488453	 0.057968	 1.132425
C	 -0.451170	 -1.129930	 1.097049
C	 0.801727	 -1.959116	 0.945507
O	 -1.528589	 -1.897310	 1.185968
C	 1.124911	 -2.785238	 2.184071
H	 1.613075	 -1.280220	 0.700432
H	 0.669725	 -2.590969	 0.072237
H	 1.272053	 -2.149836	 3.048928
H	 2.030738	 -3.360307	 2.024106
H	 0.320287	 -3.472711	 2.414906
C	 -1.934567	 -2.313204	 2.485820
C	 -0.890197	 -3.281709	 2.999240
H	 -2.910032	 -2.775418	 2.419408
H	 -2.021298	 -1.443799	 3.123161
H	 -0.811630	 -4.144125	 2.347148
H	 -1.161527	 -3.625441	 3.992153
H	 0.082013	 -2.805293	 3.054850

2 4 11 13 F

4 2 3 6 F

