%nprocshared=1
%mem=2GB
#HF/6-31G* nosymm scf=tight 

Mol

0 1
O	 3.225979	 0.970355	 -0.599647
C	 2.701189	 0.057885	 -0.047330
C	 1.245376	 -0.013843	 0.345420
O	 3.347903	 -1.046386	 0.304773
C	 0.455112	 1.231400	 -0.050772
H	 0.838542	 -0.913825	 -0.103701
H	 1.208210	 -0.175333	 1.419774
C	 -0.998893	 1.219485	 0.433193
H	 0.482531	 1.345121	 -1.130325
H	 0.957290	 2.103070	 0.354729
C	 -1.883438	 0.145884	 -0.207175
H	 -1.431207	 2.195402	 0.224832
H	 -1.019646	 1.105716	 1.516076
C	 -2.038939	 -1.097937	 0.670167
H	 -2.866660	 0.567294	 -0.410910
H	 -1.473512	 -0.152318	 -1.169469
C	 -0.746340	 -1.903191	 0.814687
H	 -2.815042	 -1.737524	 0.253241
H	 -2.388286	 -0.800637	 1.657723
C	 0.462253	 -1.035428	 1.163959
H	 -0.879231	 -2.662215	 1.582713
H	 -0.549877	 -2.438486	 -0.111943
H	 1.362634	 -1.634415	 1.259541
H	 0.311176	 -0.513172	 2.104501
H	 0.642603	 -0.287372	 0.397043
C	 4.728119	 -1.109107	 -0.004993
H	 4.882018	 -1.033965	 -1.071845
H	 5.068212	 -2.067527	 0.355250
H	 5.265056	 -0.311663	 0.488280

21 17 14 11 F

17 14 11 15 F

6 3 5 9 F

11 8 5 9 F

2 4 26 27 F

1 2 4 26 F

6 3 2 1 F

