%nprocshared=1
%mem=2GB
#HF/6-31G* nosymm scf=tight 

Mol

0 1
H	 -3.420663	 1.227371	 -1.044276
O	 -3.452007	 0.283848	 -0.965577
C	 -3.181085	 -0.079926	 0.364119
C	 -1.765924	 0.277073	 0.805136
H	 -3.327791	 -1.152017	 0.410903
H	 -3.905698	 0.375695	 1.036898
C	 -0.677594	 -0.417312	 -0.014550
H	 -1.637766	 1.358238	 0.744969
H	 -1.659588	 0.017670	 1.857098
C	 -0.129706	 -1.676778	 0.659796
H	 0.132163	 0.282408	 -0.197291
H	 -1.081782	 -0.677912	 -0.991337
C	 -1.235072	 -2.605167	 1.170035
H	 0.505297	 -2.207713	 -0.045397
H	 0.511311	 -1.391709	 1.493125
C	 -2.065339	 -2.038547	 2.327513
H	 -0.795734	 -3.553711	 1.474898
H	 -1.905696	 -2.834054	 0.344389
C	 -3.330857	 -2.834649	 2.651689
H	 -2.349647	 -1.018614	 2.080136
H	 -1.442845	 -1.971727	 3.217591
H	 -3.967488	 -2.928647	 1.775902
H	 -3.908539	 -2.341255	 3.427372
H	 -3.102675	 -3.835214	 3.003778

20 16 13 17 F

17 13 10 7 F

13 10 7 11 F

1 2 3 5 F

7 4 3 2 F

