%nprocshared=1
%mem=2GB
#HF/6-31G* nosymm scf=tight 

Mol

0 1
H	 2.673716	 -5.711985	 -0.665616
C	 2.507443	 -4.658871	 -0.530060
C	 1.220945	 -4.166658	 -0.338037
C	 3.566195	 -3.774388	 -0.543770
H	 0.383530	 -4.841475	 -0.324423
C	 1.003869	 -2.816938	 -0.163879
H	 4.568149	 -4.137011	 -0.691002
C	 3.364063	 -2.409387	 -0.369492
H	 0.015557	 -2.423486	 -0.014649
C	 2.077822	 -1.929462	 -0.178872
H	 4.207735	 -1.747089	 -0.385174
O	 1.765256	 -0.628444	 0.000000
C	 2.778419	 0.335181	 0.000000
H	 2.731280	 0.961222	 -0.884976
H	 3.711703	 -0.207767	 0.000000
H	 2.731280	 0.961222	 0.884976

13 12 10 8 F

