%nprocshared=1
%mem=2GB
#HF/6-31G* nosymm scf=tight 

Mol

0 1
O	 0.466288	 1.128073	 -1.064861
C	 0.401742	 0.051586	 -0.564107
C	 1.535008	 -0.943324	 -0.485824
O	 -0.698257	 -0.426125	 0.001050
C	 2.821258	 -0.435339	 -1.124948
H	 1.195110	 -1.860813	 -0.956919
H	 1.683212	 -1.185421	 0.562359
H	 2.672904	 -0.210887	 -2.174223
H	 3.601159	 -1.184852	 -1.042480
H	 3.165640	 0.470484	 -0.640995
C	 -1.853104	 0.406779	 0.000512
C	 -3.066105	 -0.499277	 -0.000959
H	 -1.828410	 1.043074	 -0.873618
H	 -1.829857	 1.042383	 0.875188
H	 -3.071820	 -1.133106	 -0.880383
H	 -3.972708	 0.097145	 -0.001528
H	 -3.073405	 -1.133813	 0.877999

4 2 3 6 F

11 4 2 3 F

