%nprocshared=1
%mem=2GB
#HF/6-31G* nosymm scf=tight 

Mol

0 1
O	 1.660559	 1.621666	 -0.470427
C	 1.159295	 1.069610	 -1.396217
C	 -0.152489	 0.323721	 -1.369036
O	 1.703004	 1.041836	 -2.606484
C	 -0.823008	 0.326187	 0.001381
H	 -0.795427	 0.770056	 -2.122781
H	 0.042954	 -0.689345	 -1.709944
C	 -2.149452	 -0.435131	 -0.000098
H	 -0.986465	 1.351593	 0.317631
H	 -0.147786	 -0.110284	 0.730680
C	 -3.368779	 0.488503	 -0.000883
H	 -2.193746	 -1.087250	 -0.871175
H	 -2.195311	 -1.087803	 0.870418
C	 -3.346354	 1.505125	 -1.141597
H	 -3.422266	 1.013619	 0.950187
H	 -4.273627	 -0.111280	 -0.069069
H	 -2.469560	 2.143689	 -1.080920
H	 -4.223185	 2.144600	 -1.115337
H	 -3.327221	 1.009791	 -2.108339
C	 2.940993	 1.709292	 -2.770312
H	 2.838835	 2.760720	 -2.543177
H	 3.213925	 1.575071	 -3.805381
H	 3.693426	 1.278232	 -2.125689

15 11 8 12 F

1 2 3 6 F

9 5 3 6 F

1 2 4 20 F

