%nprocshared=1
%mem=2GB
#HF/6-31G* nosymm scf=tight 

Mol

0 1
H	 0.520913	 -3.355335	 -0.750069
O	 0.895837	 -2.618051	 -0.278264
C	 0.102382	 -1.563045	 -0.462125
C	 0.624473	 -0.343591	 0.253101
O	 -0.886133	 -1.623171	 -1.118051
C	 -0.265902	 0.883932	 0.072916
H	 0.740303	 -0.614115	 1.297502
H	 1.628992	 -0.158063	 -0.118751
C	 -1.728698	 0.646073	 0.462102
H	 -0.209144	 1.219470	 -0.958188
H	 0.135059	 1.692851	 0.673903
C	 -2.387013	 -0.563588	 -0.207449
H	 -2.295816	 1.536928	 0.202262
H	 -1.805191	 0.545163	 1.543824
C	 -1.526629	 -1.823916	 -0.119195
H	 -3.351185	 -0.751273	 0.260729
H	 -2.590978	 -0.349094	 -1.253285
H	 -2.012634	 -2.666275	 -0.601422
H	 -1.337809	 -2.097883	 0.914787
H	 -0.564744	 -1.676280	 -0.602123

16 12 9 6 F

7 4 6 10 F

5 3 4 7 F

1 2 3 5 F

