%nprocshared=1
%mem=2GB
#HF/6-31G* nosymm scf=tight 

Mol

0 1
H	 -2.240291	 0.559484	 0.604969
C	 -2.008299	 -0.205926	 -0.129530
O	 -0.774054	 0.001095	 -0.743181
H	 -2.752932	 -0.160639	 -0.912984
H	 -2.076115	 -1.178578	 0.348530
C	 -0.690464	 0.033932	 -2.156852
C	 0.730027	 0.527155	 -2.423210
C	 -0.878568	 -1.364305	 -2.754130
C	 -1.704804	 1.018235	 -2.747933
H	 1.450128	 -0.153374	 -1.983021
H	 0.875283	 1.504951	 -1.978026
H	 0.925915	 0.598299	 -3.488211
H	 -0.205192	 -2.069465	 -2.278375
H	 -0.663108	 -1.350982	 -3.817615
H	 -1.893541	 -1.727519	 -2.633882
H	 -1.611617	 1.986848	 -2.268187
H	 -1.529190	 1.145787	 -3.811147
H	 -2.726582	 0.674625	 -2.627375

2 3 6 7 F

