%nprocshared=1
%mem=2GB
#HF/6-31G* nosymm scf=tight 

Mol

0 1
H	 -3.161837	 0.500524	 -0.000234
C	 -2.367097	 -0.232926	 -0.000000
O	 -1.158440	 0.455814	 -0.000122
H	 -2.468853	 -0.861886	 -0.882833
H	 -2.468942	 -0.861421	 0.883154
C	 -1.253914	 1.782986	 -0.421280
C	 0.127209	 2.412975	 -0.373579
H	 -1.943025	 2.332208	 0.221667
H	 -1.655498	 1.827314	 -1.434529
C	 0.118733	 3.874262	 -0.820177
H	 0.507200	 2.332998	 0.640261
H	 0.792747	 1.831716	 -1.004371
H	 -0.523407	 4.478957	 -0.185807
H	 1.116342	 4.298212	 -0.776734
H	 -0.236548	 3.974242	 -1.842030

11 7 6 8 F

8 6 3 2 F

