%nprocshared=1
%mem=2GB
#HF/6-31G* nosymm scf=tight 

Mol

0 1
O	 -1.276010	 1.052711	 -0.768302
C	 -1.204840	 0.067374	 -0.106123
C	 -2.388195	 -0.672128	 0.458071
O	 -0.067104	 -0.527208	 0.221609
H	 -2.388023	 -1.694060	 0.097175
H	 -3.300579	 -0.174919	 0.164318
H	 -2.315377	 -0.706351	 1.539059
C	 1.170111	 0.034140	 -0.238951
C	 2.268273	 -0.744405	 0.463542
C	 1.204986	 1.522937	 0.069127
H	 1.227065	 -0.119475	 -1.306503
H	 2.197907	 -1.800789	 0.230416
H	 3.242068	 -0.387164	 0.145055
H	 2.194295	 -0.625985	 1.539254
H	 2.148551	 1.949308	 -0.256309
H	 0.405364	 2.040350	 -0.445524
H	 1.103623	 1.691718	 1.136482

8 4 2 1 F

