%nprocshared=1
%mem=2GB
#HF/6-31G* nosymm scf=tight 

Mol

0 1
H	 -2.698709	 -0.000305	 0.034435
C	 -1.693833	 0.000034	 0.434417
O	 -0.828952	 -0.000968	 -0.659236
H	 -1.574200	 0.882896	 1.055746
H	 -1.574147	 -0.881698	 1.057355
C	 -1.034397	 -0.949412	 -1.680387
C	 -0.608835	 -2.356664	 -1.266313
C	 -2.456757	 -0.912884	 -2.235828
H	 -0.363699	 -0.617032	 -2.463789
H	 0.384463	 -2.336484	 -0.830997
H	 -0.587111	 -3.008205	 -2.134217
H	 -1.290487	 -2.796736	 -0.545306
H	 -2.742762	 0.106634	 -2.470863
H	 -2.514815	 -1.501276	 -3.146261
H	 -3.181155	 -1.320144	 -1.537810

9 6 3 2 F

