%nprocshared=1
%mem=2GB
#HF/6-31G* nosymm scf=tight 

Mol

0 1
O	 2.206955	 -0.292014	 -2.342885
C	 1.210113	 -0.042102	 -2.948367
C	 -0.171688	 -0.263329	 -2.359621
C	 1.260854	 0.516734	 -4.355592
C	 -0.160490	 -0.828248	 -0.942237
H	 -0.703299	 0.686820	 -2.391153
H	 -0.718995	 -0.922291	 -3.032396
C	 -1.568898	 -1.037077	 -0.383185
H	 0.397447	 -0.157624	 -0.296406
H	 0.381516	 -1.768654	 -0.938345
C	 -2.259874	 0.272531	 0.000494
H	 -2.177704	 -1.561565	 -1.118246
H	 -1.520913	 -1.686226	 0.489954
C	 -2.299309	 1.292585	 -1.138781
H	 -1.750238	 0.710303	 0.857025
H	 -3.276148	 0.060233	 0.327777
C	 -3.566352	 2.147124	 -1.131721
H	 -1.427462	 1.940154	 -1.072741
H	 -2.220829	 0.772174	 -2.091079
H	 -3.656394	 2.706940	 -0.205088
H	 -3.564796	 2.860504	 -1.950126
H	 -4.455333	 1.530813	 -1.231810
H	 0.758745	 1.478796	 -4.399668
H	 2.290194	 0.632266	 -4.665346
H	 0.747107	 -0.146673	 -5.045222

9 5 8 12 F

15 11 8 12 F

1 2 3 6 F

9 5 3 6 F

