%nprocshared=1
%mem=2GB
#HF/6-31G* nosymm scf=tight opt=ModRedundant

Mol

0 1
H	 0.086000	 -1.571000	 -1.156000
C	 0.035000	 -1.233000	 -0.123000
H	 0.406000	 -2.038000	 0.499000
C	 0.922000	 0.000000	 0.000000
C	 -1.372000	 -0.736000	 0.228000
O	 2.111000	 -0.000000	 -0.000000
C	 0.035000	 1.233000	 0.124000
H	 -2.157000	 -1.318000	 -0.239000
H	 -1.526000	 -0.786000	 1.302000
C	 -1.372000	 0.736000	 -0.228000
H	 0.085000	 1.570000	 1.157000
H	 0.406000	 2.038000	 -0.498000
H	 -2.157000	 1.318000	 0.239000
H	 -1.526000	 0.786000	 -1.303000
