%nprocshared=1
%mem=2GB
#HF/6-31G* nosymm scf=tight 

Mol

0 1
H	 0.209551	 -3.430430	 1.703836
O	 -0.000406	 -2.740178	 1.091158
C	 -0.726881	 -1.732235	 1.746045
C	 -1.045193	 -0.644232	 0.735761
H	 -1.648803	 -2.134405	 2.163928
H	 -0.148783	 -1.317551	 2.570776
C	 0.198102	 0.111031	 0.262842
H	 -1.752937	 0.045428	 1.187641
H	 -1.551190	 -1.100826	 -0.110386
C	 1.331804	 -0.827780	 -0.158768
H	 -0.072162	 0.760675	 -0.566069
H	 0.553005	 0.762569	 1.060377
C	 2.723619	 -0.410569	 0.329459
H	 1.342964	 -0.912588	 -1.244120
H	 1.116806	 -1.824343	 0.220779
C	 3.243875	 0.895854	 -0.272975
H	 3.424222	 -1.207124	 0.091250
H	 2.714788	 -0.329854	 1.414619
H	 3.251977	 0.848779	 -1.358681
H	 2.637085	 1.747371	 0.016682
H	 4.259473	 1.094070	 0.055697

2 3 4 8 F

8 4 7 10 F

16 13 10 14 F

1 2 3 5 F

