%nprocshared=1
%mem=2GB
#HF/6-31G* nosymm scf=tight 

Mol

0 1
O	 -3.853486	 4.767425	 2.367791
C	 -3.589812	 4.457530	 1.246542
C	 -2.652680	 3.307590	 0.923494
C	 -4.178810	 5.198743	 0.063816
C	 -2.933125	 2.035105	 1.717450
H	 -2.717326	 3.115698	 -0.146734
H	 -1.633034	 3.650735	 1.093720
C	 -1.702699	 1.133932	 1.834497
H	 -3.744878	 1.492000	 1.243928
H	 -3.289114	 2.304304	 2.706869
C	 -1.368150	 0.406956	 0.530919
H	 -0.844450	 1.728873	 2.143529
H	 -1.863162	 0.400173	 2.623114
C	 -1.210327	 1.348731	 -0.664140
H	 -2.148688	 -0.320303	 0.314420
H	 -0.450131	 -0.163031	 0.662651
C	 -2.543382	 1.895357	 -1.173894
H	 -0.563342	 2.178140	 -0.386088
H	 -0.703389	 0.824313	 -1.471518
H	 -3.059808	 2.454575	 -0.398827
H	 -2.398780	 2.559752	 -2.020280
H	 -3.200421	 1.091248	 -1.493040
H	 -4.744894	 4.518640	 -0.565967
H	 -4.826996	 5.989572	 0.414927
H	 -3.388670	 5.622899	 -0.548887

9 5 8 12 F

15 11 8 12 F

15 11 14 18 F

1 2 3 6 F

