%nprocshared=1
%mem=2GB
#HF/6-31G* nosymm scf=tight 

Mol

0 1
H	 -3.161837	 0.500524	 -0.000234
C	 -2.367097	 -0.232926	 -0.000000
O	 -1.158440	 0.455814	 -0.000122
H	 -2.468853	 -0.861886	 -0.882833
H	 -2.468942	 -0.861421	 0.883154
C	 -1.278488	 1.826227	 0.235320
C	 0.105421	 2.451313	 0.208396
H	 -1.754139	 2.000907	 1.201313
H	 -1.915145	 2.283126	 -0.523506
C	 0.070952	 3.958338	 0.458532
H	 0.719285	 1.960870	 0.957595
H	 0.559434	 2.241198	 -0.755151
H	 -0.358193	 4.189314	 1.429567
H	 1.071004	 4.377989	 0.433357
H	 -0.519843	 4.471665	 -0.295033

11 7 6 8 F

8 6 3 2 F

