%nprocshared=1
%mem=2GB
#HF/6-31G* nosymm scf=tight 

Mol

0 1
H	 -2.499100	 -0.730091	 -0.745082
O	 -2.347518	 -0.290803	 0.079804
C	 -1.184022	 0.487508	 -0.006784
C	 0.062599	 -0.378592	 0.031606
H	 -1.176523	 1.099369	 -0.904519
H	 -1.187323	 1.153111	 0.844927
O	 0.067302	 -1.176683	 -1.109800
H	 0.061819	 -0.996568	 0.931654
H	 0.946567	 0.255077	 0.072225
C	 1.178190	 -2.007942	 -1.228456
H	 1.245435	 -2.703690	 -0.394164
H	 1.069105	 -2.570124	 -2.145493
H	 2.101049	 -1.433447	 -1.274036

1 2 3 5 F

10 7 4 8 F

4 7 10 13 F

