%nprocshared=1
%mem=2GB
#HF/6-31G* nosymm scf=tight 

Mol

0 1
H	 -1.836216	 1.387520	 -0.000064
C	 -1.301823	 0.443321	 -0.000031
O	 -0.003969	 0.658512	 0.000451
O	 -1.829879	 -0.616434	 -0.000857
C	 0.850537	 -0.484732	 0.000380
C	 0.398674	 -1.389180	 -1.125726
H	 0.778486	 -0.973823	 0.962106
H	 1.872310	 -0.156783	 -0.132750
H	 -0.629145	 -1.701195	 -0.979892
H	 1.024927	 -2.274522	 -1.160510
H	 0.469912	 -0.880337	 -2.080132

5 3 2 4 F

