%nprocshared=1
%mem=2GB
#HF/6-31G* nosymm scf=tight 

Mol

0 1
H	 -3.420663	 1.227371	 -1.044276
O	 -3.452007	 0.283848	 -0.965577
C	 -3.181085	 -0.079926	 0.364119
C	 -1.765924	 0.277073	 0.805136
H	 -3.327791	 -1.152017	 0.410903
H	 -3.905698	 0.375695	 1.036898
C	 -0.677594	 -0.417312	 -0.014550
H	 -1.637766	 1.358238	 0.744969
H	 -1.659588	 0.017670	 1.857098
C	 0.738335	 -0.034840	 0.421385
H	 -0.814977	 -0.178223	 -1.064632
H	 -0.802730	 -1.495410	 0.071702
C	 1.116710	 1.393744	 0.021302
H	 0.820512	 -0.152917	 1.499218
H	 1.452650	 -0.730492	 -0.017277
C	 1.245326	 1.624363	 -1.488807
H	 2.052371	 1.667194	 0.506542
H	 0.363461	 2.075203	 0.411234
C	 1.348143	 3.093987	 -1.901167
H	 0.379840	 1.185123	 -1.979001
H	 2.112050	 1.082908	 -1.862731
H	 0.500187	 3.663432	 -1.529898
H	 1.361901	 3.190899	 -2.982488
H	 2.251404	 3.560370	 -1.521996

20 16 13 17 F

17 13 10 7 F

11 7 4 3 F

1 2 3 5 F

7 4 3 2 F

