%nprocshared=1
%mem=2GB
#HF/6-31G* nosymm scf=tight 

Mol

0 1
O	 0.391030	 1.298905	 0.000133
C	 0.503002	 0.111612	 0.000005
C	 -0.702327	 -0.811998	 -0.000075
C	 1.863306	 -0.554493	 0.000030
C	 -0.942510	 -1.502284	 -1.337224
H	 -0.562321	 -1.543757	 0.793460
H	 -1.571430	 -0.226822	 0.294873
H	 -0.088862	 -2.105360	 -1.621484
H	 -1.813113	 -2.147155	 -1.278495
H	 -1.106919	 -0.776750	 -2.124492
H	 1.974395	 -1.189404	 -0.874166
H	 2.638695	 0.198920	 -0.000196
H	 1.974487	 -1.188655	 0.874727
