%nprocshared=1
%mem=2GB
#HF/6-31G* nosymm scf=tight 

Mol

0 1
O	 -2.042549	 -1.228399	 -0.269030
C	 -1.653912	 -0.146171	 0.050137
C	 -0.332303	 0.024011	 0.778412
C	 -2.438579	 1.106236	 -0.272369
C	 0.640195	 0.885441	 -0.042599
H	 -0.490354	 0.473358	 1.754880
H	 0.092248	 -0.963064	 0.924568
C	 1.110022	 0.188064	 -1.320080
H	 1.506358	 1.142767	 0.564547
H	 0.147476	 1.819978	 -0.293617
C	 -0.041119	 -0.424896	 -2.116549
H	 1.644055	 0.900257	 -1.945394
H	 1.825139	 -0.589152	 -1.061022
H	 -0.756837	 0.333963	 -2.419754
H	 -0.574180	 -1.165364	 -1.527486
H	 0.321609	 -0.914744	 -3.014604
H	 -3.277823	 0.863061	 -0.908988
H	 -1.806773	 1.843019	 -0.759671
H	 -2.802853	 1.554979	 0.648059

11 8 5 9 F

9 5 3 2 F

