%nprocshared=1
%mem=2GB
#HF/6-31G* nosymm scf=tight 

Mol

0 1
H	 -1.836216	 1.387520	 -0.000064
C	 -1.301823	 0.443321	 -0.000031
O	 -0.003969	 0.658512	 0.000451
O	 -1.829879	 -0.616434	 -0.000857
C	 0.847329	 -0.465876	 0.220067
C	 0.660071	 -0.903334	 1.656690
H	 1.868950	 -0.174175	 0.018777
H	 0.579039	 -1.248159	 -0.476603
H	 0.925825	 -0.104805	 2.339888
H	 1.292740	 -1.759551	 1.866104
H	 -0.370298	 -1.184022	 1.842275

7 5 3 2 F

