%nprocshared=1
%mem=2GB
#HF/6-31G* nosymm scf=tight 
prop=(read,field)

Mol

0 1
H	 -0.164698	 2.769125	 0.005097
C	 -0.083928	 1.695527	 0.002481
N	 -1.221633	 1.030389	 0.006698
C	 1.163728	 1.096350	 -0.006863
C	 -1.168288	 -0.295193	 0.000898
H	 2.052927	 1.700517	 -0.012357
C	 1.235476	 -0.287918	 -0.010436
C	 0.034436	 -0.985949	 -0.008212
C	 -2.492828	 -1.014090	 0.002222
C	 2.558885	 -1.012046	 0.008281
H	 0.032911	 -2.061418	 -0.014839
H	 -3.064354	 -0.743545	 -0.879007
H	 -2.367188	 -2.090328	 0.016650
H	 -3.074895	 -0.720498	 0.868842
H	 2.514124	 -1.927079	 -0.571313
H	 3.352569	 -0.392972	 -0.393201
H	 2.829631	 -1.279832	 1.025627

@grid.dat /N
