%nprocshared=1
%mem=2GB
#HF/6-31G* nosymm scf=tight 

Mol

0 1
O	 -0.488453	 0.057968	 1.132425
C	 -0.451170	 -1.129930	 1.097049
C	 0.801727	 -1.959116	 0.945507
O	 -1.528589	 -1.897310	 1.185968
C	 1.124911	 -2.785238	 2.184071
H	 1.613075	 -1.280220	 0.700432
H	 0.669725	 -2.590969	 0.072237
H	 1.272053	 -2.149836	 3.048928
H	 2.030738	 -3.360307	 2.024106
H	 0.320287	 -3.472711	 2.414906
C	 -2.062329	 -2.133961	 2.484628
C	 -1.071018	 -3.000903	 3.231639
H	 -3.023952	 -2.619171	 2.387484
H	 -2.217113	 -1.185403	 2.980480
H	 -0.922892	 -3.944770	 2.719455
H	 -1.440024	 -3.206726	 4.231199
H	 -0.111603	 -2.503214	 3.315808

2 4 11 13 F

4 2 3 6 F

