%nprocshared=1
%mem=2GB
#HF/6-31G* nosymm scf=tight 

Mol

0 1
O	 1.066834	 -2.032293	 1.712165
C	 0.275803	 -1.645901	 0.914452
C	 -1.147444	 -2.120194	 0.804999
O	 0.550821	 -0.724572	 0.000672
H	 -1.823175	 -1.281819	 0.928282
H	 -1.339790	 -2.865528	 1.562212
H	 -1.318951	 -2.538157	 -0.180127
C	 -0.541477	 -0.206786	 -0.737611
H	 -0.233684	 0.649034	 -1.320869
H	 -1.279709	 0.084250	 -0.006816
H	 -0.944590	 -0.960967	 -1.397955

2 4 8 9 F

