%nprocshared=1
%mem=2GB
#HF/6-31G* nosymm scf=tight 

Mol

0 1
O	 -2.042549	 -1.228399	 -0.269030
C	 -1.653912	 -0.146171	 0.050137
C	 -0.332303	 0.024011	 0.778412
C	 -2.438579	 1.106236	 -0.272369
C	 0.845713	 -0.001731	 -0.208243
H	 -0.323783	 0.953829	 1.340327
H	 -0.235459	 -0.796807	 1.480410
C	 1.947099	 0.992108	 0.163595
H	 0.489026	 0.217966	 -1.213027
H	 1.252387	 -1.008214	 -0.235590
C	 2.337770	 0.916841	 1.639033
H	 2.824087	 0.807408	 -0.453012
H	 1.613622	 2.000104	 -0.071577
H	 2.707979	 -0.071204	 1.897423
H	 1.487614	 1.129396	 2.280514
H	 3.117706	 1.634010	 1.874394
H	 -3.277823	 0.863061	 -0.908988
H	 -1.806773	 1.843019	 -0.759671
H	 -2.802853	 1.554979	 0.648059

11 8 5 9 F

5 3 2 4 F

