%nprocshared=1
%mem=2GB
#HF/6-31G* nosymm scf=tight 

Mol

0 1
H	 2.595163	 -0.734052	 1.074103
N	 1.613951	 -0.539040	 1.097646
C	 0.852164	 -1.726639	 0.757058
C	 1.295104	 0.567574	 0.214213
H	 1.107779	 -2.519862	 1.451484
H	 1.063064	 -2.082572	 -0.254116
C	 -0.632800	 -1.413828	 0.864128
H	 1.871488	 1.435770	 0.515522
H	 1.532832	 0.350593	 -0.829840
C	 -0.190133	 0.878964	 0.321619
H	 -0.878644	 -1.203044	 1.909226
H	 -1.209463	 -2.280255	 0.557029
N	 -0.975995	 -0.298722	 0.000000
H	 -0.447118	 1.668313	 -0.377261
H	 -0.406320	 1.243356	 1.330371
C	 -2.393863	 -0.024976	 0.000000
H	 -2.854032	 -0.467193	 -0.876721
H	 -2.854032	 -0.467193	 0.876721
H	 -2.623281	 1.044943	 0.000000
