%nprocshared=1
%mem=2GB
#HF/6-31G* nosymm scf=tight 

Mol

0 1
H	 -0.821032	 -1.655889	 0.000000
O	 -1.037828	 -0.728600	 0.000000
C	 0.100509	 -0.036935	 0.000000
C	 0.216329	 0.849043	 -1.207282
O	 0.903982	 -0.135345	 0.868314
H	 0.170305	 0.246711	 -2.107167
H	 1.149202	 1.390823	 -1.170211
H	 -0.616708	 1.541971	 -1.232127
