%nprocshared=1
%mem=2GB
#HF/6-31G* nosymm scf=tight 

Mol

0 1
H	 -2.452259	 0.056043	 2.086897
C	 -2.337531	 -0.594613	 1.222244
O	 -1.058267	 -0.503845	 0.683187
H	 -2.488618	 -1.619264	 1.532737
H	 -3.100389	 -0.333107	 0.490062
C	 -0.719715	 0.768384	 0.229244
C	 0.719720	 0.768376	 -0.229267
H	 -1.361527	 1.055505	 -0.604624
H	 -0.844614	 1.506940	 1.018509
O	 1.392611	 -0.295398	 0.366430
H	 0.750534	 0.687200	 -1.313918
H	 1.185043	 1.714359	 0.050526
C	 2.706965	 -0.449871	 -0.062409
H	 2.756559	 -0.644779	 -1.131878
H	 3.305899	 0.433456	 0.155466
H	 3.125548	 -1.294566	 0.467107

7 10 13 14 F

2 3 6 7 F

