%nprocshared=1
%mem=2GB
#HF/6-31G* nosymm scf=tight 

Mol

0 1
O	 1.401501	 2.072622	 -0.264135
C	 0.392077	 2.405168	 -0.796672
C	 -0.904306	 1.632472	 -0.782618
O	 0.272480	 3.532062	 -1.487283
C	 -0.823008	 0.326187	 0.001381
H	 -1.669026	 2.288734	 -0.376123
H	 -1.187245	 1.454237	 -1.816493
C	 -2.149452	 -0.435131	 -0.000098
H	 -0.521352	 0.539859	 1.021938
H	 -0.039923	 -0.295976	 -0.420518
C	 -3.368779	 0.488503	 -0.000883
H	 -2.193746	 -1.087250	 -0.871175
H	 -2.195311	 -1.087803	 0.870418
C	 -3.346354	 1.505125	 -1.141597
H	 -3.422266	 1.013619	 0.950187
H	 -4.273627	 -0.111280	 -0.069069
H	 -2.469560	 2.143689	 -1.080920
H	 -4.223185	 2.144600	 -1.115337
H	 -3.327221	 1.009791	 -2.108339
C	 1.420897	 4.355438	 -1.577542
H	 1.739491	 4.672321	 -0.594887
H	 1.126578	 5.208674	 -2.168507
H	 2.230480	 3.826994	 -2.060064

15 11 8 12 F

1 2 3 6 F

9 5 3 6 F

1 2 4 20 F

