%nprocshared=1
%mem=2GB
#HF/6-31G* nosymm scf=tight 

Mol

0 1
H	 -2.499100	 -0.730091	 -0.745082
O	 -2.347518	 -0.290803	 0.079804
C	 -1.184022	 0.487508	 -0.006784
C	 0.062599	 -0.378592	 0.031606
H	 -1.176523	 1.099369	 -0.904519
H	 -1.187323	 1.153111	 0.844927
O	 -0.282615	 -1.649796	 -0.420772
H	 0.453901	 -0.426991	 1.049703
H	 0.835116	 0.065147	 -0.593612
C	 0.777031	 -2.551825	 -0.472108
H	 1.214000	 -2.708757	 0.512301
H	 0.388047	 -3.492392	 -0.836700
H	 1.558973	 -2.208011	 -1.146015

1 2 3 5 F

10 7 4 8 F

4 7 10 13 F

