%nprocshared=1
%mem=2GB
#HF/6-31G* nosymm scf=tight 

Mol

0 1
H	 1.267435	 -1.981842	 1.416824
C	 1.423004	 -0.901849	 1.527344
C	 0.178135	 -0.059888	 1.416258
O	 2.514288	 -0.472765	 1.719997
C	 -0.558097	 -0.297372	 0.091132
H	 0.460011	 0.980237	 1.531004
H	 -0.477020	 -0.324941	 2.245323
C	 -1.850991	 0.512573	 -0.019058
H	 0.100243	 -0.040921	 -0.735665
H	 -0.787177	 -1.356328	 -0.013721
C	 -3.096943	 -0.368295	 -0.099594
H	 -1.800724	 1.150330	 -0.898172
H	 -1.931651	 1.177355	 0.838044
H	 -3.060452	 -1.020287	 -0.967456
H	 -3.996858	 0.233488	 -0.175704
H	 -3.191959	 -0.995686	 0.782074

6 3 5 9 F

4 2 3 6 F

