%nprocshared=1
%mem=2GB
#HF/6-31G* nosymm scf=tight 

Mol

0 1
H	 -2.499100	 -0.730091	 -0.745082
O	 -2.347518	 -0.290803	 0.079804
C	 -1.184022	 0.487508	 -0.006784
C	 0.062599	 -0.378592	 0.031606
H	 -1.176523	 1.099369	 -0.904519
H	 -1.187323	 1.153111	 0.844927
O	 0.642463	 -0.242429	 1.290573
H	 0.760213	 -0.065776	 -0.747792
H	 -0.205850	 -1.414301	 -0.167956
C	 1.786917	 -1.011483	 1.485312
H	 2.571264	 -0.743315	 0.779965
H	 2.139850	 -0.823486	 2.489801
H	 1.574845	 -2.073269	 1.378410

1 2 3 5 F

10 7 4 8 F

4 7 10 13 F

