%nprocshared=1
%mem=2GB
#HF/6-31G* nosymm scf=tight 

Mol

0 1
O	 -2.324811	 1.361668	 -0.277141
C	 -2.105949	 0.203097	 -0.092081
C	 -0.889235	 -0.467034	 -0.705952
C	 -3.002726	 -0.644460	 0.782455
C	 -0.539983	 -1.762413	 0.044489
H	 -0.059633	 0.227844	 -0.633779
H	 -1.060506	 -0.681448	 -1.757008
C	 0.703109	 -2.447050	 -0.528756
H	 -0.393162	 -1.518100	 1.090500
H	 -1.381979	 -2.451327	 -0.002272
C	 1.055913	 -3.781272	 0.138653
H	 1.552355	 -1.770741	 -0.450562
H	 0.548836	 -2.621290	 -1.591625
C	 1.484517	 -3.664612	 1.602444
H	 1.862008	 -4.243052	 -0.425849
H	 0.206637	 -4.457244	 0.061982
H	 2.326276	 -2.985878	 1.709620
H	 1.788863	 -4.631156	 1.991757
H	 0.682031	 -3.298379	 2.233856
H	 -3.496582	 -1.399307	 0.176174
H	 -3.747939	 -0.023774	 1.260148
H	 -2.421318	 -1.168775	 1.535358

6 3 5 8 F

3 5 8 12 F

12 8 11 15 F

