%nprocshared=1
%mem=2GB
#HF/6-31G* nosymm scf=tight 

Mol

0 1
H	 4.503947	 0.103927	 -1.249160
C	 3.671397	 -0.489896	 -0.885864
C	 2.376441	 0.321306	 -0.884109
H	 3.586197	 -1.363870	 -1.525503
H	 3.923432	 -0.834986	 0.112954
C	 1.179525	 -0.477515	 -0.378466
H	 2.156053	 0.677763	 -1.885487
H	 2.506391	 1.205350	 -0.262039
N	 -0.034174	 0.314143	 -0.419342
H	 1.033602	 -1.346155	 -1.014968
H	 1.392921	 -0.861634	 0.624675
C	 -1.217365	 -0.386708	 0.039277
H	 0.092374	 1.145839	 0.125917
C	 -2.452633	 0.504241	 -0.042481
H	 -1.359282	 -1.255468	 -0.597962
H	 -1.106954	 -0.766988	 1.060345
C	 -3.758029	 -0.289423	 -0.010781
H	 -2.394220	 1.093569	 -0.952170
H	 -2.440793	 1.210787	 0.785871
H	 -3.816659	 -0.981993	 -0.845726
H	 -4.617837	 0.370165	 -0.069296
H	 -3.847478	 -0.867502	 0.904682

10 6 9 12 F

