%nprocshared=1
%mem=2GB
#HF/6-31G* nosymm scf=tight opt=ModRedundant

Mol

0 1
H	 1.231000	 0.196000	 1.460000
C	 1.230000	 0.079000	 0.369000
C	 0.160000	 0.857000	 -0.355000
O	 2.036000	 -0.617000	 -0.158000
C	 -1.245000	 0.569000	 0.194000
H	 0.227000	 0.629000	 -1.412000
H	 0.386000	 1.914000	 -0.224000
C	 -1.714000	 -0.864000	 -0.067000
H	 -1.942000	 1.266000	 -0.262000
H	 -1.266000	 0.774000	 1.262000
H	 -1.732000	 -1.079000	 -1.130000
H	 -2.715000	 -1.019000	 0.323000
H	 -1.060000	 -1.593000	 0.404000
