%nprocshared=1
%mem=2GB
#HF/6-31G* nosymm scf=tight 

Mol

0 1
O	 -0.806752	 -1.114546	 1.082146
C	 -0.561929	 -0.074560	 0.531515
C	 -1.597472	 1.034011	 0.503089
N	 0.623947	 0.147590	 -0.102813
H	 -1.868528	 1.298769	 -0.513038
H	 -2.472791	 0.671041	 1.019920
H	 -1.237628	 1.928840	 0.999450
C	 1.343284	 1.374367	 0.179054
C	 1.057544	 -0.567271	 -1.283158
H	 2.333919	 1.320941	 -0.258902
H	 1.429938	 1.502537	 1.243950
H	 0.830264	 2.238017	 -0.238486
H	 2.138643	 -0.639517	 -1.276447
H	 0.663838	 -1.570957	 -1.306481
H	 0.761164	 -0.057998	 -2.198370

2 4 8 10 F

