%nprocshared=1
%mem=2GB
#HF/6-31G* nosymm scf=tight 

Mol

0 1
H	 0.116373	 -0.026154	 0.154513
N	 -0.626943	 -0.667432	 -0.000092
C	 -1.979713	 -0.158776	 0.000050
C	 -0.320752	 -1.971961	 -0.201629
H	 -2.520245	 -0.492427	 -0.879443
H	 -1.934741	 0.918111	 -0.004428
H	 -2.517790	 -0.485056	 0.883818
C	 1.161731	 -2.284238	 -0.160278
O	 -1.148152	 -2.818945	 -0.397185
H	 1.581548	 -2.020838	 0.805500
H	 1.301054	 -3.340699	 -0.333993
H	 1.693270	 -1.721938	 -0.921607

3 2 4 9 F

