%nprocshared=1
%mem=2GB
#HF/6-31G* nosymm scf=tight 

Mol

0 1
H	 -0.916387	 2.402738	 -0.387003
C	 -0.790605	 1.350776	 -0.222809
C	 -1.912702	 0.481825	 -0.014607
C	 0.430827	 0.801939	 -0.205545
H	 -2.906829	 0.892543	 -0.022769
C	 -1.730383	 -0.830757	 0.188744
H	 1.321454	 1.382827	 -0.353051
N	 0.640212	 -0.532897	 -0.000111
H	 -2.544793	 -1.510308	 0.347810
C	 -0.401158	 -1.427743	 0.207437
C	 2.010177	 -1.032049	 0.000042
O	 -0.195171	 -2.602315	 0.386758
H	 2.187698	 -1.635381	 -0.882279
H	 2.677579	 -0.189247	 -0.001871
H	 2.188882	 -1.632203	 0.884288
