%nprocshared=1
%mem=2GB
#HF/6-31G* nosymm scf=tight 

Mol

0 1
O	 0.340857	 0.953951	 -1.385850
C	 0.335202	 -0.040783	 -0.734533
C	 1.477635	 -1.022968	 -0.632422
O	 -0.698257	 -0.426125	 0.001050
C	 2.688647	 -0.619427	 -1.464029
H	 1.098202	 -1.995163	 -0.932613
H	 1.733274	 -1.116101	 0.418882
H	 2.432874	 -0.543915	 -2.513907
H	 3.478224	 -1.355507	 -1.356467
H	 3.073930	 0.342996	 -1.149987
C	 -1.853104	 0.406779	 0.000512
C	 -3.066105	 -0.499277	 -0.000959
H	 -1.828410	 1.043074	 -0.873618
H	 -1.829857	 1.042383	 0.875188
H	 -3.071820	 -1.133106	 -0.880383
H	 -3.972708	 0.097145	 -0.001528
H	 -3.073405	 -1.133813	 0.877999

4 2 3 6 F

11 4 2 3 F

