%nprocshared=1
%mem=2GB
#HF/6-31G* nosymm scf=tight 

Mol

0 1
H	 2.866480	 -0.465706	 0.876907
C	 2.405773	 -0.024801	 0.000000
N	 0.988830	 -0.304158	 0.000000
H	 2.866480	 -0.465706	 -0.876907
H	 2.629928	 1.045948	 0.000000
C	 0.612754	 -1.257244	 1.027698
C	 0.510221	 -0.737179	 -1.299767
H	 1.103932	 -2.224293	 0.879175
H	 0.921750	 -0.875527	 1.995716
C	 -0.894069	 -1.455650	 1.017284
H	 0.744137	 0.025353	 -2.036024
H	 0.993927	 -1.666331	 -1.617892
C	 -0.993883	 -0.949377	 -1.248460
H	 -1.183478	 -2.228952	 1.716758
H	 -1.386273	 -0.527532	 1.302417
O	 -1.336378	 -1.865017	 -0.246335
H	 -1.355287	 -1.357507	 -2.183250
H	 -1.490784	 0.002561	 -1.069926
