%nprocshared=1
%mem=2GB
#HF/6-31G* nosymm scf=tight 

Mol

0 1
O	 -2.042549	 -1.228399	 -0.269030
C	 -1.653912	 -0.146171	 0.050137
C	 -0.332303	 0.024011	 0.778412
C	 -2.438579	 1.106236	 -0.272369
C	 0.076576	 1.504357	 0.835579
H	 -0.396670	 -0.380970	 1.784508
H	 0.418046	 -0.538767	 0.234189
C	 0.437464	 2.069104	 -0.539140
H	 0.924764	 1.626184	 1.507009
H	 -0.743200	 2.073608	 1.263436
C	 -0.597226	 1.725045	 -1.609768
H	 0.541475	 3.149777	 -0.470194
H	 1.409942	 1.685930	 -0.839195
H	 -1.574520	 2.124680	 -1.354346
H	 -0.699464	 0.649932	 -1.724326
H	 -0.314025	 2.135364	 -2.573854
H	 -3.277823	 0.863061	 -0.908988
H	 -1.806773	 1.843019	 -0.759671
H	 -2.802853	 1.554979	 0.648059

11 8 5 9 F

9 5 3 2 F

