%nprocshared=1
%mem=2GB
#HF/6-31G* nosymm scf=tight 

Mol

0 1
O	 -0.488453	 0.057968	 1.132425
C	 -0.451170	 -1.129930	 1.097049
C	 0.801727	 -1.959116	 0.945507
O	 -1.528589	 -1.897310	 1.185968
C	 1.124911	 -2.785238	 2.184071
H	 1.613075	 -1.280220	 0.700432
H	 0.669725	 -2.590969	 0.072237
H	 1.272053	 -2.149836	 3.048928
H	 2.030738	 -3.360307	 2.024106
H	 0.320287	 -3.472711	 2.414906
C	 -1.426408	 -3.233158	 0.703817
C	 -1.288675	 -3.162735	 -0.802297
H	 -2.309573	 -3.783046	 0.999161
H	 -0.569933	 -3.708814	 1.161848
H	 -2.151686	 -2.678933	 -1.245361
H	 -1.207595	 -4.163908	 -1.213061
H	 -0.402507	 -2.604357	 -1.081898

2 4 11 13 F

4 2 3 6 F

