%nprocshared=1
%mem=2GB
#HF/6-31G* nosymm scf=tight 

Mol

0 1
H	 -2.798360	 -0.862255	 -0.071053
N	 -1.863561	 -0.715187	 0.256814
C	 -1.344686	 0.554728	 -0.219830
H	 -1.300452	 -1.461917	 -0.101532
C	 -0.349617	 1.113085	 0.775765
H	 -0.858009	 0.492172	 -1.194116
H	 -2.170062	 1.253990	 -0.312403
O	 -1.032816	 1.407593	 1.960497
H	 0.438397	 0.385535	 0.969013
H	 0.107697	 2.012909	 0.370282
C	 -0.249618	 2.011245	 2.940179
H	 -0.879841	 2.188138	 3.801123
H	 0.579385	 1.371325	 3.237230
H	 0.153856	 2.961608	 2.596918

8 5 3 6 F

5 8 11 13 F

11 8 5 3 F

