%nprocshared=1
%mem=2GB
#HF/6-31G* nosymm scf=tight 

Mol

0 1
H	 -2.698709	 -0.000305	 0.034435
C	 -1.693833	 0.000034	 0.434417
O	 -0.828952	 -0.000968	 -0.659236
H	 -1.574200	 0.882896	 1.055746
H	 -1.574147	 -0.881698	 1.057355
C	 0.559449	 -0.000018	 -0.420814
C	 1.368013	 -0.344340	 -1.670048
C	 1.038487	 1.289121	 0.243717
H	 0.687756	 -0.807352	 0.290368
H	 0.968864	 -1.235277	 -2.142763
H	 2.402248	 -0.535505	 -1.401629
H	 1.363575	 0.461259	 -2.397478
H	 0.410849	 1.529177	 1.095127
H	 2.058257	 1.168353	 0.595781
H	 1.027228	 2.132394	 -0.439369

6 3 2 1 F

