%nprocshared=1
%mem=2GB
#HF/6-31G* nosymm scf=tight 

Mol

0 1
H	 2.652209	 0.763231	 0.000000
O	 2.263154	 -0.100023	 0.000000
C	 0.912879	 -0.015685	 0.000000
C	 0.300862	 0.444974	 1.158365
C	 0.146169	 -0.368416	 -1.098554
H	 0.913680	 0.713186	 1.998797
C	 -1.075703	 0.548597	 1.206745
H	 0.621659	 -0.725677	 -1.996772
C	 -1.235396	 -0.259353	 -1.036114
H	 -1.544900	 0.905888	 2.106124
C	 -1.855221	 0.198067	 0.112033
H	 -1.823319	 -0.535260	 -1.893384
H	 -2.925638	 0.281368	 0.157122
