%nprocshared=1
%mem=2GB
#HF/6-31G* nosymm scf=tight 

Mol

0 1
H	 3.302796	 -1.934625	 -1.385358
C	 2.395325	 -2.499188	 -1.196901
C	 1.170967	 -1.584974	 -1.185730
H	 2.312168	 -3.257140	 -1.970736
H	 2.516258	 -3.010138	 -0.245823
C	 -0.127859	 -2.340084	 -0.922563
H	 1.082532	 -1.065272	 -2.134665
H	 1.301077	 -0.818483	 -0.423526
N	 -1.268658	 -1.446027	 -0.948991
H	 -0.271174	 -3.087832	 -1.697996
H	 -0.048595	 -2.886667	 0.023134
C	 -1.217365	 -0.386708	 0.039277
H	 -1.355622	 -1.044301	 -1.863373
C	 -2.452633	 0.504241	 -0.042481
H	 -1.172857	 -0.848333	 1.022069
H	 -0.315698	 0.227728	 -0.054795
C	 -3.758029	 -0.289423	 -0.010781
H	 -2.394220	 1.093569	 -0.952170
H	 -2.440793	 1.210787	 0.785871
H	 -3.816659	 -0.981993	 -0.845726
H	 -4.617837	 0.370165	 -0.069296
H	 -3.847478	 -0.867502	 0.904682

15 12 14 18 F

