%nprocshared=1
%mem=2GB
#HF/6-31G* nosymm scf=tight 

Mol

0 1
H	 -1.854057	 -0.951449	 3.729205
C	 -1.098224	 -0.867843	 2.969733
C	 -1.078513	 -1.748990	 1.893900
C	 -0.132731	 0.114692	 3.046543
H	 -1.823316	 -2.521180	 1.817623
C	 -0.110899	 -1.644862	 0.918155
H	 -0.132306	 0.805086	 3.871432
C	 0.850640	 0.233246	 2.070129
H	 -0.084090	 -2.318717	 0.082072
C	 0.861068	 -0.650157	 1.002154
H	 1.587639	 1.007701	 2.157987
O	 1.765256	 -0.628444	 0.000000
C	 2.778419	 0.335181	 0.000000
H	 2.731280	 0.961222	 -0.884976
H	 3.711703	 -0.207767	 0.000000
H	 2.731280	 0.961222	 0.884976

13 12 10 8 F

