%nprocshared=1
%mem=2GB
#HF/6-31G* nosymm scf=tight 

Mol

0 1
H	 -2.798360	 -0.862255	 -0.071053
N	 -1.863561	 -0.715187	 0.256814
C	 -1.344686	 0.554728	 -0.219830
H	 -1.300452	 -1.461917	 -0.101532
C	 -2.388670	 1.255933	 -1.063362
H	 -1.037276	 1.230953	 0.579057
H	 -0.472858	 0.363281	 -0.837927
O	 -2.613597	 0.487859	 -2.210776
H	 -3.314937	 1.367674	 -0.500173
H	 -2.032853	 2.246914	 -1.336464
C	 -3.495150	 1.061858	 -3.122347
H	 -3.590188	 0.382961	 -3.958866
H	 -4.478542	 1.216317	 -2.681820
H	 -3.125180	 2.018752	 -3.484680

8 5 3 6 F

5 8 11 13 F

11 8 5 3 F

