%nprocshared=1
%mem=2GB
#HF/6-31G* nosymm scf=tight 

Mol

0 1
H	 -2.095764	 0.435638	 -2.350391
C	 -2.795213	 1.048318	 -1.768139
C	 -2.660244	 0.921717	 -0.272021
O	 -3.583432	 1.744001	 -2.321751
C	 -2.020069	 -0.407812	 0.150805
H	 -2.094210	 1.770681	 0.093455
H	 -3.664143	 0.984764	 0.146151
C	 -2.903077	 -1.626595	 -0.128774
H	 -1.076399	 -0.517751	 -0.375205
H	 -1.772922	 -0.368859	 1.210597
C	 -2.247886	 -2.945187	 0.286984
H	 -3.140802	 -1.657902	 -1.190072
H	 -3.854216	 -1.519904	 0.389388
C	 -3.126973	 -4.163252	 -0.008772
H	 -1.294015	 -3.041306	 -0.225484
H	 -2.022025	 -2.915430	 1.352106
C	 -2.547277	 -5.500690	 0.465869
H	 -3.321127	 -4.215972	 -1.078921
H	 -4.094261	 -4.018070	 0.467662
C	 -1.271646	 -5.933529	 -0.258724
H	 -3.303169	 -6.269999	 0.328974
H	 -2.356217	 -5.451013	 1.535892
H	 -1.428677	 -5.976211	 -1.333334
H	 -0.447183	 -5.253680	 -0.071531
H	 -0.959274	 -6.920689	 0.068284

6 3 5 8 F

3 5 8 12 F

12 8 11 14 F

8 11 14 18 F

20 17 14 18 F

