%nprocshared=1
%mem=2GB
#HF/6-31G* nosymm scf=tight 

Mol

0 1
O	 1.066834	 -2.032293	 1.712165
C	 0.275803	 -1.645901	 0.914452
C	 -1.147444	 -2.120194	 0.804999
O	 0.550821	 -0.724572	 0.000672
H	 -1.823175	 -1.281819	 0.928282
H	 -1.339790	 -2.865528	 1.562212
H	 -1.318951	 -2.538157	 -0.180127
C	 0.624828	 -1.158092	 -1.345754
H	 0.678252	 -0.311320	 -2.014693
H	 -0.278539	 -1.719954	 -1.524604
H	 1.492048	 -1.784906	 -1.495350

2 4 8 9 F

