%nprocshared=1
%mem=2GB
#HF/6-31G* nosymm scf=tight 

Mol

0 1
H	 1.046875	 -6.633309	 -0.639424
C	 1.134793	 -5.605251	 -0.335862
C	 0.728865	 -5.222201	 0.933643
C	 1.653501	 -4.667734	 -1.215031
H	 0.326757	 -5.950288	 1.614499
C	 0.842220	 -3.900139	 1.323241
H	 1.967647	 -4.966523	 -2.198720
C	 1.767905	 -3.343771	 -0.827210
H	 0.533164	 -3.585718	 2.301656
C	 1.361959	 -2.956675	 0.444453
H	 2.168732	 -2.614931	 -1.504301
C	 1.463013	 -1.545621	 0.912827
O	 1.970282	 -0.730723	 0.000018
O	 1.125479	 -1.177523	 1.994230
C	 3.377318	 -0.566646	 -0.000065
H	 3.695437	 -0.028981	 -0.881264
H	 3.789299	 -1.563704	 0.000236
H	 3.695516	 -0.028316	 0.880770

12 13 15 16 F

13 12 10 6 F

