%nprocshared=1
%mem=2GB
#HF/6-31G* nosymm scf=tight 

Mol

0 1
H	 -3.179820	 -0.981745	 0.817387
C	 -2.585165	 -0.071442	 0.774075
O	 -1.267382	 -0.340812	 0.418795
H	 -2.999582	 0.581754	 0.018605
H	 -2.645748	 0.426538	 1.740912
C	 -0.595162	 -1.173024	 1.310307
C	 0.780252	 -1.480455	 0.766313
H	 -0.495995	 -0.685680	 2.281058
H	 -1.139330	 -2.103925	 1.456283
O	 1.392611	 -0.295398	 0.366430
H	 1.366841	 -1.978916	 1.535375
H	 0.686847	 -2.162093	 -0.080055
C	 2.706965	 -0.449871	 -0.062409
H	 2.756559	 -0.644779	 -1.131878
H	 3.305899	 0.433456	 0.155466
H	 3.125548	 -1.294566	 0.467107

3 6 7 11 F

2 3 6 7 F

