%nprocshared=1
%mem=2GB
#HF/6-31G* nosymm scf=tight 

Mol

0 1
O	 -0.389695	 0.092980	 2.453461
C	 -0.833093	 0.610524	 1.479901
C	 -1.689737	 1.847648	 1.474314
O	 -0.632575	 0.154573	 0.251549
H	 -2.647636	 1.627754	 1.017121
H	 -1.833848	 2.193421	 2.486988
H	 -1.213112	 2.620317	 0.882227
C	 0.160891	 -1.019931	 0.106212
C	 1.589627	 -0.672828	 0.480843
H	 0.089836	 -1.367806	 -0.916050
H	 -0.238459	 -1.792301	 0.749618
C	 2.141005	 -1.489854	 1.650822
H	 1.613750	 0.385765	 0.731307
H	 2.223028	 -0.802219	 -0.392838
C	 1.888274	 -2.988273	 1.489980
H	 3.210654	 -1.311049	 1.740151
H	 1.690970	 -1.142265	 2.574948
H	 2.287323	 -3.545091	 2.331850
H	 2.356307	 -3.372197	 0.587858
H	 0.825025	 -3.201783	 1.426774

16 12 9 8 F

2 4 8 10 F

1 2 4 8 F

