%nprocshared=1
%mem=2GB
#HF/6-31G* nosymm scf=tight 

Mol

0 1
O	 1.188031	 1.349318	 -0.215161
C	 1.042842	 0.247743	 -0.637645
C	 -0.247887	 -0.534412	 -0.625490
O	 2.024907	 -0.454090	 -1.188966
C	 -1.412532	 0.227344	 -0.000452
H	 -0.466915	 -0.815347	 -1.652065
H	 -0.058346	 -1.465569	 -0.098445
C	 -2.706999	 -0.587347	 -0.000541
H	 -1.562987	 1.157468	 -0.539653
H	 -1.153616	 0.506753	 1.016109
C	 -3.956778	 0.291888	 0.000910
H	 -2.726114	 -1.239230	 -0.871609
H	 -2.725217	 -1.240844	 0.869333
H	 -3.985213	 0.933254	 -0.875158
H	 -4.860123	 -0.309979	 0.000519
H	 -3.984618	 0.931166	 0.878514
C	 3.295342	 0.166888	 -1.263278
H	 3.243013	 1.069744	 -1.854548
H	 3.947834	 -0.551483	 -1.734601
H	 3.657838	 0.410114	 -0.274873

1 2 3 6 F

9 5 3 6 F

1 2 4 17 F

