%nprocshared=1
%mem=2GB
#HF/6-31G* nosymm scf=tight opt=ModRedundant

Mol

0 1
O	 1.242000	 1.468000	 -0.027000
C	 0.903000	 0.324000	 -0.015000
C	 -0.582000	 -0.067000	 -0.005000
C	 1.954000	 -0.773000	 -0.006000
C	 -0.853000	 -1.205000	 -1.004000
C	 -1.432000	 1.154000	 -0.372000
C	 -0.943000	 -0.531000	 1.421000
H	 -0.572000	 -0.921000	 -2.014000
H	 -1.912000	 -1.442000	 -1.013000
H	 -0.319000	 -2.114000	 -0.749000
H	 -1.191000	 1.515000	 -1.366000
H	 -2.485000	 0.892000	 -0.352000
H	 -1.267000	 1.970000	 0.320000
H	 -1.999000	 -0.777000	 1.471000
H	 -0.387000	 -1.414000	 1.719000
H	 -0.748000	 0.253000	 2.146000
H	 2.062000	 -1.179000	 -1.007000
H	 2.900000	 -0.343000	 0.295000
H	 1.698000	 -1.593000	 0.653000
