%nprocshared=1
%mem=2GB
#HF/6-31G* nosymm scf=tight 

Mol

0 1
H	 -3.161837	 0.500524	 -0.000234
C	 -2.367097	 -0.232926	 -0.000000
O	 -1.158440	 0.455814	 -0.000122
H	 -2.468853	 -0.861886	 -0.882833
H	 -2.468942	 -0.861421	 0.883154
C	 -1.070090	 1.460300	 -0.965045
C	 0.290147	 2.126952	 -0.855536
H	 -1.864110	 2.193537	 -0.817414
H	 -1.205094	 1.036816	 -1.961209
C	 0.476659	 3.245956	 -1.879218
H	 0.402068	 2.517405	 0.151282
H	 1.056514	 1.368840	 -0.984559
H	 -0.266614	 4.028039	 -1.751487
H	 1.455166	 3.703439	 -1.778823
H	 0.391772	 2.871428	 -2.895548

11 7 6 8 F

8 6 3 2 F

