%nprocshared=1
%mem=2GB
#HF/6-31G* nosymm scf=tight 

Mol

0 1
O	 0.215511	 0.888001	 -4.678308
C	 -0.786123	 1.187305	 -4.102477
C	 -0.906309	 0.999236	 -2.600315
C	 -1.966840	 1.794771	 -4.826540
C	 -0.982932	 -0.493028	 -2.239181
H	 -1.814744	 1.496561	 -2.278263
H	 -0.067424	 1.462486	 -2.088749
C	 0.149006	 -1.302371	 -2.876593
H	 -0.954133	 -0.581413	 -1.159022
H	 -1.939984	 -0.899569	 -2.562481
C	 0.075323	 -1.399736	 -4.404711
H	 0.154873	 -2.304883	 -2.452728
H	 1.100259	 -0.850236	 -2.603572
C	 -1.053427	 -2.288511	 -4.930067
H	 1.023541	 -1.787350	 -4.768483
H	 -0.024340	 -0.400645	 -4.824201
H	 -0.984148	 -3.291584	 -4.518035
H	 -1.004790	 -2.372263	 -6.011279
H	 -2.032469	 -1.894716	 -4.678683
H	 -2.807717	 1.106858	 -4.795447
H	 -1.705968	 1.996448	 -5.856130
H	 -2.285662	 2.712097	 -4.340052

6 3 2 1 F

6 3 5 8 F

3 5 8 12 F

