%nprocshared=1
%mem=2GB
#HF/6-31G* nosymm scf=tight 

Mol

0 1
O	 -3.853486	 4.767425	 2.367791
C	 -3.589812	 4.457530	 1.246542
C	 -2.652680	 3.307590	 0.923494
C	 -4.178810	 5.198743	 0.063816
C	 -2.933125	 2.035105	 1.717450
H	 -2.717326	 3.115698	 -0.146734
H	 -1.633034	 3.650735	 1.093720
C	 -2.050235	 1.913140	 2.960587
H	 -2.784969	 1.174056	 1.073419
H	 -3.979700	 2.018432	 2.004765
C	 -0.601626	 1.548592	 2.631391
H	 -2.067080	 2.852153	 3.511964
H	 -2.466027	 1.160922	 3.629431
C	 0.047982	 2.499249	 1.624281
H	 -0.566382	 0.533033	 2.240985
H	 -0.015384	 1.541816	 3.548599
C	 -0.452961	 2.289237	 0.195773
H	 -0.141895	 3.527430	 1.925305
H	 1.127850	 2.368633	 1.650428
H	 -1.525867	 2.446220	 0.129608
H	 0.025059	 2.977628	 -0.494383
H	 -0.246098	 1.279579	 -0.147658
H	 -4.744894	 4.518640	 -0.565967
H	 -4.826996	 5.989572	 0.414927
H	 -3.388670	 5.622899	 -0.548887

9 5 8 12 F

15 11 8 12 F

15 11 14 18 F

1 2 3 6 F

