%nprocshared=1
%mem=2GB
#HF/6-31G* nosymm scf=tight 

Mol

0 1
O	 0.391030	 1.298905	 0.000133
C	 0.503002	 0.111612	 0.000005
C	 -0.702327	 -0.811998	 -0.000075
C	 1.863306	 -0.554493	 0.000030
C	 -1.286503	 -1.053603	 1.386473
H	 -1.450083	 -0.385084	 -0.665940
H	 -0.403647	 -1.750737	 -0.463028
H	 -1.607570	 -0.123716	 1.839733
H	 -2.141991	 -1.718189	 1.325457
H	 -0.551858	 -1.501477	 2.044444
H	 1.974395	 -1.189404	 -0.874166
H	 2.638695	 0.198920	 -0.000196
H	 1.974487	 -1.188655	 0.874727
