%nprocshared=1
%mem=2GB
#HF/6-31G* nosymm scf=tight 

Mol

0 1
O	 -2.042549	 -1.228399	 -0.269030
C	 -1.653912	 -0.146171	 0.050137
C	 -0.332303	 0.024011	 0.778412
C	 -2.438579	 1.106236	 -0.272369
C	 0.845713	 -0.001731	 -0.208243
H	 -0.323783	 0.953829	 1.340327
H	 -0.235459	 -0.796807	 1.480410
C	 1.050075	 -1.376883	 -0.845599
H	 1.759899	 0.296095	 0.302293
H	 0.665767	 0.739029	 -0.981570
C	 -0.249517	 -1.982373	 -1.374416
H	 1.768620	 -1.295602	 -1.658319
H	 1.490597	 -2.048856	 -0.112824
H	 -0.697168	 -1.348771	 -2.134818
H	 -0.976657	 -2.106052	 -0.577287
H	 -0.074920	 -2.957613	 -1.817644
H	 -3.277823	 0.863061	 -0.908988
H	 -1.806773	 1.843019	 -0.759671
H	 -2.802853	 1.554979	 0.648059

11 8 5 9 F

5 3 2 4 F

