%nprocshared=1
%mem=2GB
#HF/6-31G* nosymm scf=tight 

Mol

0 1
H	 -3.135461	 -1.215070	 0.001379
O	 -2.310168	 -0.871793	 -0.309793
C	 -2.026376	 0.340750	 0.341611
C	 -0.673256	 0.843270	 -0.132153
H	 -2.792215	 1.080697	 0.115987
H	 -2.013526	 0.200402	 1.421792
C	 0.486613	 -0.083066	 0.235839
H	 -0.715586	 0.970948	 -1.210718
H	 -0.508072	 1.829858	 0.297090
C	 0.020488	 -1.444884	 0.753520
H	 1.103760	 0.400582	 0.985991
H	 1.119571	 -0.229604	 -0.638651
C	 -0.547885	 -1.380386	 2.170723
H	 -0.734818	 -1.845668	 0.080762
H	 0.852178	 -2.146457	 0.730501
H	 -1.403434	 -0.712844	 2.218826
H	 -0.872225	 -2.359330	 2.510451
H	 0.194754	 -1.015315	 2.874798

14 10 7 11 F

2 3 4 8 F

1 2 3 4 F

