%nprocshared=1
%mem=2GB
#HF/6-31G* nosymm scf=tight 

Mol

0 1
H	 0.671156	 -3.606478	 4.128558
C	 0.912716	 -2.982162	 3.287755
C	 0.203933	 -3.097363	 2.096714
C	 1.930221	 -2.054312	 3.372791
H	 -0.592522	 -3.815247	 2.012268
C	 0.510825	 -2.298548	 1.016478
H	 2.489215	 -1.951203	 4.286015
C	 2.252417	 -1.240594	 2.291814
H	 -0.028516	 -2.377149	 0.090861
C	 1.539671	 -1.363647	 1.109472
H	 3.048910	 -0.528691	 2.389082
O	 1.765256	 -0.628444	 0.000000
C	 2.778419	 0.335181	 0.000000
H	 2.731280	 0.961222	 -0.884976
H	 3.711703	 -0.207767	 0.000000
H	 2.731280	 0.961222	 0.884976

13 12 10 8 F

