%nprocshared=1
%mem=2GB
#HF/6-31G* nosymm scf=tight 

Mol

0 1
O	 -1.276010	 1.052711	 -0.768302
C	 -1.204840	 0.067374	 -0.106123
C	 -2.388195	 -0.672128	 0.458071
O	 -0.067104	 -0.527208	 0.221609
H	 -2.388023	 -1.694060	 0.097175
H	 -3.300579	 -0.174919	 0.164318
H	 -2.315377	 -0.706351	 1.539059
C	 0.889689	 -0.815855	 -0.807545
C	 1.105716	 0.488782	 -1.553764
C	 0.365515	 -1.931604	 -1.698046
H	 1.806162	 -1.129643	 -0.329924
H	 1.463421	 1.259974	 -0.881040
H	 1.840517	 0.352198	 -2.340367
H	 0.180112	 0.830576	 -2.004415
H	 1.074928	 -2.139108	 -2.492836
H	 0.220613	 -2.841054	 -1.128941
H	 -0.578987	 -1.644570	 -2.149195

11 8 4 2 F

