%nprocshared=1
%mem=2GB
#HF/6-31G* nosymm scf=tight 

Mol

0 1
H	 -1.836216	 1.387520	 -0.000064
C	 -1.301823	 0.443321	 -0.000031
O	 -0.003969	 0.658512	 0.000451
O	 -1.829879	 -0.616434	 -0.000857
C	 0.776726	 -0.037392	 -0.970847
C	 0.760584	 -1.504493	 -0.599803
H	 1.779573	 0.367082	 -0.966801
H	 0.350341	 0.134456	 -1.949601
H	 1.183862	 -1.656697	 0.386454
H	 1.345681	 -2.071718	 -1.316148
H	 -0.252236	 -1.890606	 -0.601055

7 5 3 2 F

