%nprocshared=1
%mem=2GB
#HF/6-31G* nosymm scf=tight 

Mol

0 1
H	 -2.862333	 -0.140785	 -0.144628
N	 -1.942590	 -0.328359	 0.204462
C	 -1.030582	 0.746813	 -0.143893
H	 -1.630862	 -1.181123	 -0.218300
C	 -0.764757	 0.736663	 -1.634655
H	 -1.393291	 1.737396	 0.133934
H	 -0.090789	 0.586596	 0.375627
O	 -0.088814	 -0.446451	 -1.951562
H	 -1.703834	 0.790206	 -2.185023
H	 -0.160665	 1.600147	 -1.904292
C	 0.295968	 -0.548357	 -3.285402
H	 1.077210	 -1.293847	 -3.345427
H	 -0.534823	 -0.858547	 -3.916710
H	 0.680852	 0.397273	 -3.661511

8 5 3 6 F

6 3 2 4 F

11 8 5 3 F

