%nprocshared=1
%mem=2GB
#HF/6-31G* nosymm scf=tight 

Mol

0 1
H	 -3.467224	 -0.286881	 2.517680
C	 -2.473437	 -0.532394	 2.187690
C	 -1.821975	 -1.635981	 2.717634
C	 -1.848255	 0.255474	 1.234094
H	 -2.307965	 -2.246171	 3.457126
C	 -0.544174	 -1.951026	 2.292835
H	 -2.354816	 1.110562	 0.824427
C	 -0.569184	 -0.057978	 0.807365
H	 -0.024906	 -2.801191	 2.691899
C	 0.086423	 -1.163376	 1.336553
H	 -0.081604	 0.548931	 0.069633
C	 1.463013	 -1.545621	 0.912827
O	 1.970282	 -0.730723	 0.000018
O	 2.055360	 -2.484869	 1.343870
C	 3.377318	 -0.566646	 -0.000065
H	 3.695437	 -0.028981	 -0.881264
H	 3.789299	 -1.563704	 0.000236
H	 3.695516	 -0.028316	 0.880770

12 13 15 16 F

13 12 10 6 F

