%nprocshared=1
%mem=2GB
#HF/6-31G* nosymm scf=tight 

Mol

0 1
O	 -1.276010	 1.052711	 -0.768302
C	 -1.204840	 0.067374	 -0.106123
C	 -2.388195	 -0.672128	 0.458071
O	 -0.067104	 -0.527208	 0.221609
H	 -2.388023	 -1.694060	 0.097175
H	 -3.300579	 -0.174919	 0.164318
H	 -2.315377	 -0.706351	 1.539059
C	 0.152633	 -1.884490	 -0.187573
C	 -0.115206	 -1.918035	 -1.681803
C	 -0.757401	 -2.812735	 0.601633
H	 1.185562	 -2.128286	 0.012748
H	 0.542123	 -1.232216	 -2.204122
H	 0.053866	 -2.917259	 -2.069486
H	 -1.141138	 -1.636719	 -1.893885
H	 -0.612428	 -3.839282	 0.280386
H	 -0.538519	 -2.756211	 1.660345
H	 -1.798088	 -2.548585	 0.442877

11 8 4 2 F

