%nprocshared=1
%mem=2GB
#HF/6-31G* nosymm scf=tight 

Mol

0 1
H	 -0.881104	 -1.974419	 4.277366
C	 -0.323418	 -1.682480	 3.406258
C	 -0.584392	 -2.268512	 2.172287
C	 0.662115	 -0.721015	 3.494358
H	 -1.349097	 -3.019778	 2.084797
C	 0.128648	 -1.896724	 1.053116
H	 0.877754	 -0.256900	 4.440499
C	 1.390738	 -0.334617	 2.374420
H	 -0.062677	 -2.341231	 0.094136
C	 1.122531	 -0.925061	 1.149462
H	 2.150660	 0.415736	 2.475193
O	 1.765256	 -0.628444	 0.000000
C	 2.778419	 0.335181	 0.000000
H	 2.731280	 0.961222	 -0.884976
H	 3.711703	 -0.207767	 0.000000
H	 2.731280	 0.961222	 0.884976

13 12 10 8 F

