%nprocshared=1
%mem=2GB
#HF/6-31G* nosymm scf=tight 

Mol

0 1
O	 2.544561	 1.850230	 -0.436504
C	 1.838777	 1.723109	 -1.389639
C	 0.569680	 0.890692	 -1.352025
C	 2.167518	 2.390316	 -2.709457
C	 0.291004	 0.242674	 0.000989
H	 -0.258633	 1.532446	 -1.649411
H	 0.643551	 0.134968	 -2.132938
C	 -0.994322	 -0.586602	 0.000262
H	 0.231019	 1.016052	 0.760210
H	 1.134073	 -0.383189	 0.276087
C	 -2.259874	 0.272531	 0.000494
H	 -1.004862	 -1.240012	 -0.870939
H	 -1.005220	 -1.241071	 0.870675
C	 -3.549786	 -0.549746	 -0.000374
H	 -2.250389	 0.926680	 -0.869574
H	 -2.250838	 0.925513	 0.871430
C	 -4.809590	 0.315458	 -0.000369
H	 -3.560515	 -1.202009	 -0.871156
H	 -3.561123	 -1.202955	 0.869711
H	 -4.844746	 0.956611	 -0.876632
H	 -5.706986	 -0.295590	 -0.001609
H	 -4.845960	 0.954827	 0.877144
H	 1.363265	 3.056339	 -3.008133
H	 3.085857	 2.952964	 -2.615040
H	 2.277291	 1.646185	 -3.492945

15 11 8 12 F

15 11 14 18 F

1 2 3 6 F

9 5 3 6 F

