%nprocshared=1
%mem=2GB
#HF/6-31G* nosymm scf=tight 

Mol

0 1
H	 0.347024	 -5.714142	 -1.656174
C	 0.653546	 -4.725592	 -1.329734
C	 -0.516922	 -3.744241	 -1.373527
H	 1.049666	 -4.819347	 -0.322497
H	 1.465412	 -4.402117	 -1.975089
C	 -0.127859	 -2.340084	 -0.922563
H	 -1.326504	 -4.098014	 -0.742804
H	 -0.910997	 -3.699104	 -2.387459
N	 -1.268658	 -1.446027	 -0.948991
H	 0.241154	 -2.380997	 0.098769
H	 0.702082	 -1.974928	 -1.536758
C	 -1.217365	 -0.386708	 0.039277
H	 -1.355622	 -1.044301	 -1.863373
C	 -2.452633	 0.504241	 -0.042481
H	 -1.172857	 -0.848333	 1.022069
H	 -0.315698	 0.227728	 -0.054795
C	 -3.758029	 -0.289423	 -0.010781
H	 -2.394220	 1.093569	 -0.952170
H	 -2.440793	 1.210787	 0.785871
H	 -3.816659	 -0.981993	 -0.845726
H	 -4.617837	 0.370165	 -0.069296
H	 -3.847478	 -0.867502	 0.904682

15 12 14 18 F

