%nprocshared=1
%mem=2GB
#HF/6-31G* nosymm scf=tight 

Mol

0 1
O	 -3.853486	 4.767425	 2.367791
C	 -3.589812	 4.457530	 1.246542
C	 -2.652680	 3.307590	 0.923494
C	 -4.178810	 5.198743	 0.063816
C	 -2.933125	 2.035105	 1.717450
H	 -2.717326	 3.115698	 -0.146734
H	 -1.633034	 3.650735	 1.093720
C	 -4.423212	 1.837233	 2.000736
H	 -2.381118	 2.069606	 2.651381
H	 -2.544720	 1.181718	 1.170622
C	 -4.958430	 2.785555	 3.074960
H	 -4.990034	 1.980101	 1.081851
H	 -4.600960	 0.808280	 2.310134
C	 -4.677887	 4.259258	 2.775778
H	 -4.519301	 2.524317	 4.036177
H	 -6.031783	 2.638759	 3.181545
C	 -3.215836	 4.645695	 2.996588
H	 -4.956910	 4.477362	 1.746992
H	 -5.313723	 4.881374	 3.402311
H	 -2.556106	 4.064175	 2.358824
H	 -3.048299	 5.695417	 2.775871
H	 -2.915753	 4.472153	 4.026140
H	 -4.744894	 4.518640	 -0.565967
H	 -4.826996	 5.989572	 0.414927
H	 -3.388670	 5.622899	 -0.548887

9 5 8 12 F

15 11 8 12 F

15 11 14 18 F

1 2 3 6 F

