%nprocshared=1
%mem=2GB
#HF/6-31G* nosymm scf=tight 

Mol

0 1
H	 -2.698709	 -0.000305	 0.034435
C	 -1.693833	 0.000034	 0.434417
O	 -0.828952	 -0.000968	 -0.659236
H	 -1.574200	 0.882896	 1.055746
H	 -1.574147	 -0.881698	 1.057355
C	 0.559449	 -0.000018	 -0.420814
C	 1.003005	 -1.167277	 0.458777
C	 1.374584	 0.098860	 -1.708733
H	 0.712457	 0.914575	 0.139667
H	 0.371191	 -1.237307	 1.337671
H	 2.026826	 -1.016824	 0.786482
H	 0.965200	 -2.115917	 -0.067358
H	 0.999520	 0.904669	 -2.330390
H	 2.414426	 0.305004	 -1.474855
H	 1.346144	 -0.820510	 -2.284747

6 3 2 1 F

