%nprocshared=1
%mem=2GB
#HF/6-31G* nosymm scf=tight 

Mol

0 1
H	 2.866480	 -0.465706	 0.876907
C	 2.405773	 -0.024801	 0.000000
N	 0.988830	 -0.304158	 0.000000
H	 2.866480	 -0.465706	 -0.876907
H	 2.629928	 1.045948	 0.000000
C	 0.644740	 -1.419478	 -0.862341
C	 0.194535	 0.864031	 -0.332265
H	 0.905286	 -1.216727	 -1.906135
H	 1.201860	 -2.296291	 -0.547602
C	 -0.845373	 -1.702646	 -0.765534
H	 0.421996	 1.659305	 0.370619
H	 0.422275	 1.233179	 -1.337433
C	 -1.283638	 0.520306	 -0.249515
H	 -1.135409	 -2.472766	 -1.468250
H	 -1.087871	 -2.041078	 0.240264
O	 -1.593245	 -0.562149	 -1.081613
H	 -1.889792	 1.353585	 -0.580030
H	 -1.546756	 0.286462	 0.780561
