%nprocshared=1
%mem=2GB
#HF/6-31G* nosymm scf=tight 

Mol

0 1
H	 -2.243726	 0.715410	 3.075097
C	 -2.065576	 -0.099976	 2.376850
O	 -0.744170	 -0.118284	 1.942235
H	 -2.256891	 -1.038515	 2.878531
H	 -2.760034	 0.001229	 1.543836
C	 -0.350443	 1.033391	 1.265572
C	 1.122449	 0.943568	 0.941954
H	 -0.915343	 1.139010	 0.338519
H	 -0.531108	 1.919096	 1.871288
O	 1.392611	 -0.295398	 0.366430
H	 1.390671	 1.751784	 0.264569
H	 1.699247	 1.068206	 1.859267
C	 2.706965	 -0.449871	 -0.062409
H	 2.756559	 -0.644779	 -1.131878
H	 3.305899	 0.433456	 0.155466
H	 3.125548	 -1.294566	 0.467107

3 6 7 11 F

2 3 6 7 F

