%nprocshared=1
%mem=2GB
#HF/6-31G* nosymm scf=tight 

Mol

0 1
O	 -0.682937	 1.318834	 -0.186099
C	 -0.860635	 0.152188	 -0.042321
C	 -2.173363	 -0.477127	 0.338347
O	 0.083258	 -0.765189	 -0.202595
H	 -2.477673	 -1.180929	 -0.427595
H	 -2.923125	 0.290956	 0.455536
H	 -2.058825	 -1.029004	 1.264191
C	 1.002317	 -0.611253	 -1.281684
C	 0.312094	 -0.755551	 -2.625342
H	 1.801570	 -1.328423	 -1.172131
H	 1.402473	 0.384631	 -1.156822
H	 1.019836	 -0.558531	 -3.424725
H	 -0.075803	 -1.758200	 -2.754172
H	 -0.505490	 -0.048130	 -2.712108

10 8 4 2 F

