%nprocshared=1
%mem=2GB
#HF/6-31G* nosymm scf=tight 

Mol

0 1
H	 -2.249512	 0.457707	 3.150193
C	 -2.097446	 -0.241071	 2.329994
O	 -0.768844	 -0.260866	 1.917973
H	 -2.349086	 -1.237029	 2.667467
H	 -2.765768	 0.033129	 1.514771
C	 -0.299904	 0.962487	 1.446009
C	 1.173592	 0.845747	 1.133940
H	 -0.836420	 1.249273	 0.540691
H	 -0.448635	 1.745801	 2.186484
O	 1.392611	 -0.295398	 0.366430
H	 1.499410	 1.737832	 0.602871
H	 1.734176	 0.786700	 2.067724
C	 2.706965	 -0.449871	 -0.062409
H	 2.756559	 -0.644779	 -1.131878
H	 3.305899	 0.433456	 0.155466
H	 3.125548	 -1.294566	 0.467107

3 6 7 11 F

2 3 6 7 F

