%nprocshared=1
%mem=2GB
#HF/6-31G* nosymm scf=tight 

Mol

0 1
H	 -0.539178	 -0.408428	 -0.955535
N	 -0.626943	 -0.667432	 -0.000092
C	 -1.764712	 -1.469151	 0.389068
C	 0.325755	 -0.252874	 0.869779
H	 -2.485253	 -1.539034	 -0.418981
H	 -2.234501	 -0.998151	 1.237115
H	 -1.456984	 -2.471254	 0.668575
C	 1.674978	 -0.919497	 0.690344
O	 0.127974	 0.574320	 1.716447
H	 2.068026	 -0.726742	 -0.302990
H	 2.359261	 -0.526889	 1.427442
H	 1.590945	 -1.994555	 0.814939

4 2 3 5 F

