%nprocshared=1
%mem=2GB
#HF/6-31G* nosymm scf=tight 

Mol

0 1
H	 2.866480	 -0.465706	 0.876907
C	 2.405773	 -0.024801	 0.000000
N	 0.988830	 -0.304158	 0.000000
H	 2.866480	 -0.465706	 -0.876907
H	 2.629928	 1.045948	 0.000000
C	 0.445951	 -0.411189	 -1.341564
C	 0.235110	 0.658229	 0.782104
H	 0.562093	 0.524001	 -1.898727
H	 0.982822	 -1.185295	 -1.880799
C	 -1.029097	 -0.770765	 -1.271360
H	 0.617594	 0.667199	 1.797914
H	 0.335888	 1.671346	 0.379692
C	 -1.234347	 0.270293	 0.795991
H	 -1.471591	 -0.767598	 -2.258886
H	 -1.142261	 -1.765201	 -0.843271
O	 -1.736494	 0.164434	 -0.506544
H	 -1.824885	 1.024367	 1.299630
H	 -1.357167	 -0.675163	 1.321346
