%nprocshared=1
%mem=2GB
#HF/6-31G* nosymm scf=tight 

Mol

0 1
H	 -3.571158	 0.540474	 0.139285
O	 -3.106200	 -0.271124	 -0.011510
C	 -1.775819	 -0.076055	 -0.001477
C	 -1.194565	 1.040188	 0.592784
C	 -0.984567	 -1.040135	 -0.613469
H	 -1.815044	 1.782715	 1.064980
C	 0.176419	 1.187894	 0.572619
H	 -1.456413	 -1.892107	 -1.064885
C	 0.385140	 -0.878289	 -0.625446
H	 0.638308	 2.044105	 1.027221
C	 0.982541	 0.231427	 -0.036152
H	 0.998766	 -1.625102	 -1.099571
C	 2.449886	 0.391055	 -0.056853
O	 3.219905	 -0.451156	 -0.401105
H	 2.812757	 1.369174	 0.275976

7 11 13 14 F

