%nprocshared=1
%mem=2GB
#HF/6-31G* nosymm scf=tight 

Mol

0 1
H	 1.892397	 -0.630110	 -2.422138
C	 1.165716	 -0.850436	 -1.648627
C	 1.322923	 0.120767	 -0.479465
H	 0.177548	 -0.779529	 -2.092327
H	 1.319592	 -1.877538	 -1.332435
C	 0.306652	 -0.176050	 0.621399
H	 1.182551	 1.141180	 -0.820757
H	 2.320741	 0.049926	 -0.062809
N	 -1.068537	 -0.011044	 0.085269
H	 0.372515	 -1.192590	 0.973735
H	 0.391664	 0.520566	 1.441230
O	 -1.656956	 -0.997225	 -0.235017
O	 -1.478635	 1.104830	 -0.018026

12 9 6 3 F

