%nprocshared=1
%mem=2GB
#HF/6-31G* nosymm scf=tight 

Mol

0 1
O	 2.514870	 1.895498	 0.421406
C	 1.740382	 1.873232	 1.328286
C	 0.473724	 1.037102	 1.290846
C	 1.974203	 2.685301	 2.585676
C	 0.291004	 0.242674	 0.000989
H	 0.487636	 0.372442	 2.153645
H	 -0.371208	 1.704635	 1.454840
C	 -0.994322	 -0.586602	 0.000262
H	 1.149236	 -0.406337	 -0.141673
H	 0.289185	 0.927314	 -0.841278
C	 -2.259874	 0.272531	 0.000494
H	 -1.004862	 -1.240012	 -0.870939
H	 -1.005220	 -1.241071	 0.870675
C	 -3.549786	 -0.549746	 -0.000374
H	 -2.250389	 0.926680	 -0.869574
H	 -2.250838	 0.925513	 0.871430
C	 -4.809590	 0.315458	 -0.000369
H	 -3.560515	 -1.202009	 -0.871156
H	 -3.561123	 -1.202955	 0.869711
H	 -4.844746	 0.956611	 -0.876632
H	 -5.706986	 -0.295590	 -0.001609
H	 -4.845960	 0.954827	 0.877144
H	 2.018754	 2.034707	 3.454215
H	 2.901321	 3.234501	 2.498128
H	 1.154963	 3.380255	 2.745423

15 11 8 12 F

15 11 14 18 F

1 2 3 6 F

9 5 3 6 F

