%nprocshared=1
%mem=2GB
#HF/6-31G* nosymm scf=tight 

Mol

0 1
H	 -1.575496	 -0.653071	 0.296048
N	 -0.626943	 -0.667432	 -0.000092
C	 -0.335610	 -1.128376	 -1.338514
C	 0.325755	 -0.252874	 0.869779
H	 -1.213344	 -1.572510	 -1.796044
H	 0.441450	 -1.872755	 -1.276820
H	 0.007887	 -0.311861	 -1.964887
C	 1.674978	 -0.919497	 0.690344
O	 0.127974	 0.574320	 1.716447
H	 2.068026	 -0.726742	 -0.302990
H	 2.359261	 -0.526889	 1.427442
H	 1.590945	 -1.994555	 0.814939

4 2 3 5 F

