%nprocshared=1
%mem=2GB
#HF/6-31G* nosymm scf=tight 

Mol

0 1
O	 -1.276010	 1.052711	 -0.768302
C	 -1.204840	 0.067374	 -0.106123
C	 -2.388195	 -0.672128	 0.458071
O	 -0.067104	 -0.527208	 0.221609
H	 -2.388023	 -1.694060	 0.097175
H	 -3.300579	 -0.174919	 0.164318
H	 -2.315377	 -0.706351	 1.539059
C	 0.487138	 -0.300352	 1.525173
C	 -0.630574	 -0.593557	 2.510231
C	 1.006998	 1.125529	 1.621366
H	 1.301154	 -0.996241	 1.665257
H	 -0.982399	 -1.612792	 2.397868
H	 -0.275993	 -0.463447	 3.527421
H	 -1.468213	 0.076873	 2.350424
H	 1.406995	 1.310732	 2.613192
H	 1.797460	 1.295393	 0.901441
H	 0.205788	 1.834373	 1.438035

11 8 4 2 F

