%nprocshared=1
%mem=2GB
#HF/6-31G* nosymm scf=tight 

Mol

0 1
H	 0.960607	 0.877345	 2.045983
C	 0.018505	 0.965493	 1.522554
O	 0.000000	 0.000000	 0.521119
H	 -0.793958	 0.819172	 2.232613
H	 -0.062423	 1.969840	 1.109726
C	 -1.165642	 0.000000	 -0.238270
H	 -1.228672	 0.883184	 -0.872070
H	 -2.003012	 0.000000	 0.445920
H	 -1.228672	 -0.883184	 -0.872070
