%nprocshared=1
%mem=2GB
#HF/6-31G* nosymm scf=tight 

Mol

0 1
H	 3.083879	 -1.346558	 0.395444
O	 2.172668	 -1.603300	 0.415122
C	 1.365383	 -0.540424	 0.207814
C	 0.952342	 -0.155995	 -1.061404
C	 0.948836	 0.174665	 1.317123
H	 1.277656	 -0.713863	 -1.923373
C	 0.123844	 0.942175	 -1.220405
H	 1.267141	 -0.121205	 2.298050
C	 0.119439	 1.272827	 1.149201
H	 -0.189203	 1.230082	 -2.207567
C	 -0.297302	 1.662623	 -0.117353
C	 -0.331804	 2.045533	 2.336710
H	 -0.940844	 2.515952	 -0.238546
O	 -0.175282	 1.701458	 3.464388
H	 -0.837498	 2.988514	 2.108003

11 9 12 14 F

