%nprocshared=1
%mem=2GB
#HF/6-31G* nosymm scf=tight 

Mol

0 1
H	 -3.161837	 0.500524	 -0.000234
C	 -2.367097	 -0.232926	 -0.000000
O	 -1.158440	 0.455814	 -0.000122
H	 -2.468853	 -0.861886	 -0.882833
H	 -2.468942	 -0.861421	 0.883154
C	 -1.058687	 1.440634	 0.983775
C	 -2.337362	 1.446094	 1.803300
H	 -0.899939	 2.416651	 0.523243
H	 -0.198587	 1.244490	 1.625385
C	 -3.518060	 2.044799	 1.040158
H	 -2.560870	 0.425751	 2.099285
H	 -2.158576	 2.005219	 2.716598
H	 -3.729419	 1.484363	 0.133703
H	 -4.416399	 2.036517	 1.648240
H	 -3.323994	 3.074979	 0.754725

6 3 2 4 F

11 7 6 8 F

