%nprocshared=1
%mem=2GB
#HF/6-31G* nosymm scf=tight 

Mol

0 1
H	 -3.269016	 -0.876744	 0.468090
C	 -2.809304	 0.000122	 0.025886
N	 -1.391456	 0.000019	 0.300661
H	 -3.037557	 -0.000063	 -1.044252
H	 -3.269223	 0.876956	 0.468000
C	 -1.091027	 0.458995	 1.642626
C	 -0.640373	 0.756663	 -0.681771
H	 -1.410703	 1.494512	 1.794351
H	 -1.631047	 -0.159552	 2.352092
C	 0.400797	 0.354233	 1.918406
H	 -0.851753	 0.355208	 -1.667524
H	 -0.930214	 1.811886	 -0.683915
C	 0.851452	 0.651900	 -0.405991
H	 0.612177	 0.755687	 2.904159
H	 0.690639	 -0.700990	 1.920549
N	 1.151880	 1.110877	 0.935974
H	 1.391471	 1.270448	 -1.115456
H	 1.171127	 -0.383616	 -0.557715
C	 2.569728	 1.110775	 1.210749
H	 2.752261	 1.518891	 2.198623
H	 3.083665	 1.737580	 0.490464
H	 3.013392	 0.111417	 1.168988
