%nprocshared=1
%mem=2GB
#HF/6-31G* nosymm scf=tight 

Mol

0 1
H	 -2.153054	 -2.250733	 0.000000
O	 -2.462445	 -1.355403	 0.000000
C	 -1.434260	 -0.483044	 0.000000
C	 -1.347585	 0.400952	 1.070396
C	 -0.489180	 -0.444091	 -1.007580
H	 -2.093187	 0.352223	 1.841535
C	 -0.317322	 1.316921	 1.125662
H	 -0.544575	 -1.121889	 -1.840693
C	 0.544691	 0.486285	 -0.937327
H	 -0.257431	 1.996371	 1.955921
C	 0.641114	 1.371147	 0.123289
C	 1.529484	 0.520709	 -1.995389
H	 1.443586	 2.082482	 0.163546
N	 2.302127	 0.545811	 -2.828034

14 12 9 5 F

