%nprocshared=1
%mem=2GB
#HF/6-31G* nosymm scf=tight 

Mol

0 1
O	 -0.682937	 1.318834	 -0.186099
C	 -0.860635	 0.152188	 -0.042321
C	 -2.173363	 -0.477127	 0.338347
O	 0.083258	 -0.765189	 -0.202595
H	 -2.477673	 -1.180929	 -0.427595
H	 -2.923125	 0.290956	 0.455536
H	 -2.058825	 -1.029004	 1.264191
C	 1.391937	 -0.334737	 -0.569838
C	 1.464938	 0.031625	 -2.040585
H	 2.102520	 -1.108729	 -0.322556
H	 1.578493	 0.527671	 0.053820
H	 2.449455	 0.426337	 -2.272229
H	 1.291621	 -0.836797	 -2.663621
H	 0.728302	 0.790334	 -2.281710

8 4 2 1 F

