%nprocshared=1
%mem=2GB
#HF/6-31G* nosymm scf=tight 

Mol

0 1
H	 -3.269016	 -0.876744	 0.468090
C	 -2.809304	 0.000122	 0.025886
N	 -1.391456	 0.000019	 0.300661
H	 -3.037557	 -0.000063	 -1.044252
H	 -3.269223	 0.876956	 0.468000
C	 -0.979002	 -1.161461	 1.063965
C	 -0.956220	 1.221939	 0.948188
H	 -1.459789	 -1.188215	 2.046633
H	 -1.277483	 -2.055954	 0.526979
C	 0.530380	 -1.166853	 1.249183
H	 -1.238114	 2.065690	 0.326757
H	 -1.435498	 1.352960	 1.923193
C	 0.553162	 1.216547	 1.133404
H	 0.812275	 -2.010604	 1.870613
H	 1.009658	 -1.297872	 0.274177
N	 0.965616	 0.055067	 1.896709
H	 0.851643	 2.111040	 1.670391
H	 1.033949	 1.243301	 0.150737
C	 2.383463	 0.054964	 2.171485
H	 2.636452	 -0.795084	 2.795333
H	 2.653425	 0.956467	 2.710225
H	 2.994718	 0.004906	 1.265307
