%nprocshared=1
%mem=2GB
#HF/6-31G* nosymm scf=tight opt=ModRedundant

Mol

0 1
H	 2.005000	 1.251000	 -0.256000
C	 1.163000	 0.736000	 0.188000
H	 1.224000	 0.838000	 1.270000
O	 -0.000000	 1.356000	 -0.290000
C	 1.163000	 -0.735000	 -0.188000
C	 -1.163000	 0.735000	 0.188000
H	 2.005000	 -1.251000	 0.256000
H	 1.224000	 -0.838000	 -1.270000
O	 0.000000	 -1.356000	 0.290000
H	 -1.224000	 0.838000	 1.270000
H	 -2.005000	 1.251000	 -0.256000
C	 -1.163000	 -0.736000	 -0.188000
H	 -2.005000	 -1.251000	 0.256000
H	 -1.224000	 -0.838000	 -1.270000
