%nprocshared=1
%mem=2GB
#HF/6-31G* nosymm scf=tight 

Mol

0 1
O	 -2.324811	 1.361668	 -0.277141
C	 -2.105949	 0.203097	 -0.092081
C	 -0.889235	 -0.467034	 -0.705952
C	 -3.002726	 -0.644460	 0.782455
C	 -0.100563	 -1.250060	 0.356126
H	 -0.259998	 0.311889	 -1.122657
H	 -1.185093	 -1.130978	 -1.513214
C	 1.152083	 -1.911805	 -0.223172
H	 0.163664	 -0.565368	 1.154102
H	 -0.738583	 -2.014794	 0.796421
C	 1.939111	 -2.764180	 0.778875
H	 1.805722	 -1.143853	 -0.632722
H	 0.860292	 -2.542294	 -1.060544
C	 2.577497	 -1.972421	 1.921494
H	 2.721679	 -3.291024	 0.238768
H	 1.285630	 -3.531191	 1.189659
H	 3.228540	 -1.191161	 1.538740
H	 3.177374	 -2.622333	 2.550907
H	 1.834062	 -1.501856	 2.556051
H	 -3.496582	 -1.399307	 0.176174
H	 -3.747939	 -0.023774	 1.260148
H	 -2.421318	 -1.168775	 1.535358

6 3 5 8 F

3 5 8 12 F

12 8 11 15 F

