%nprocshared=1
%mem=2GB
#HF/6-31G* nosymm scf=tight 

Mol

0 1
H	 1.564490	 0.772007	 3.128725
O	 2.102918	 0.933891	 2.366106
C	 1.411889	 0.726126	 1.227471
C	 2.084427	 0.928332	 0.026326
C	 0.089045	 0.328399	 1.222132
H	 3.112252	 1.237358	 0.056966
C	 1.431416	 0.731997	 -1.172879
H	 -0.453396	 0.165309	 2.132454
C	 -0.536158	 0.140425	 0.000000
H	 1.958249	 0.890395	 -2.095492
C	 0.102097	 0.332324	 -1.204721
N	 -1.935604	 -0.280333	 0.000000
H	 -0.417885	 0.175986	 -2.126992
O	 -2.161694	 -1.452901	 0.000000
O	 -2.770341	 0.571417	 0.000000

4 3 2 1 F

