%nprocshared=1
%mem=2GB
#HF/6-31G* nosymm scf=tight 
prop=(read,field)

Mol

0 1
H	 -2.698806	 -0.000305	 0.034376
C	 -1.693930	 0.000034	 0.434358
O	 -0.829049	 -0.000968	 -0.659295
H	 -1.574297	 0.882896	 1.055687
H	 -1.574244	 -0.881698	 1.057296
C	 0.559352	 -0.000018	 -0.420873
C	 1.030917	 1.269237	 0.285905
C	 1.032808	 -1.268335	 0.286354
H	 0.980660	 0.000117	 -1.419137
H	 0.635137	 2.147035	 -0.213472
H	 2.114741	 1.324967	 0.264570
H	 0.723406	 1.298651	 1.326451
H	 0.637763	 -2.146858	 -0.212238
H	 2.116783	 -1.322882	 0.264269
H	 0.726139	 -1.297501	 1.327000

@grid.dat /N
