%nprocshared=1
%mem=2GB
#HF/6-31G* nosymm scf=tight 

Mol

0 1
O	 1.242696	 0.345789	 0.960664
C	 0.576249	 0.131685	 -0.000108
C	 -0.766779	 -0.556801	 -0.000461
O	 0.938307	 0.480490	 -1.228079
C	 -1.945214	 0.412366	 0.000161
H	 -0.796911	 -1.211249	 -0.867467
H	 -0.796854	 -1.212390	 0.865687
C	 -3.287791	 -0.317055	 0.000105
H	 -1.876087	 1.060580	 -0.866812
H	 -1.875822	 1.059691	 0.867761
H	 -3.394745	 -0.949193	 -0.877058
H	 -4.111778	 0.388953	 0.000015
H	 -3.394954	 -0.949187	 0.877259
C	 2.184567	 1.138048	 -1.368299
H	 2.190670	 2.063591	 -0.810737
H	 2.296647	 1.336002	 -2.422869
H	 2.988735	 0.507034	 -1.018092

9 5 3 6 F

14 4 2 1 F

