%nprocshared=1
%mem=2GB
#HF/6-31G* nosymm scf=tight 

Mol

0 1
H	 -0.311303	 -0.501655	 2.335303
O	 0.323776	 0.141593	 2.051120
C	 -0.320933	 1.103837	 1.268560
C	 -0.795902	 0.595680	 -0.067389
H	 0.396377	 1.902978	 1.120095
H	 -1.163561	 1.538166	 1.805553
C	 -1.522220	 -0.487727	 -0.255690
H	 -0.494076	 1.192004	 -0.914608
H	 -1.071454	 -1.449856	 -0.418625
H	 -2.596511	 -0.445958	 -0.267127

5 3 2 1 F

5 3 4 7 F

