%nprocshared=1
%mem=2GB
#HF/6-31G* nosymm scf=tight 

Mol

0 1
H	 2.759463	 1.643377	 -1.008717
C	 2.042235	 1.443873	 -0.220866
C	 1.322923	 0.120767	 -0.479465
H	 2.581501	 1.424045	 0.721032
H	 1.343450	 2.274176	 -0.191017
C	 0.306652	 -0.176050	 0.621399
H	 2.040767	 -0.691796	 -0.522699
H	 0.807489	 0.152447	 -1.432138
N	 -1.068537	 -0.011044	 0.085269
H	 0.372515	 -1.192590	 0.973735
H	 0.391664	 0.520566	 1.441230
O	 -1.656956	 -0.997225	 -0.235017
O	 -1.478635	 1.104830	 -0.018026

12 9 6 3 F

