%nprocshared=1
%mem=2GB
#HF/6-31G* nosymm scf=tight 

Mol

0 1
H	 -2.798360	 -0.862255	 -0.071053
N	 -1.863561	 -0.715187	 0.256814
C	 -1.344686	 0.554728	 -0.219830
H	 -1.300452	 -1.461917	 -0.101532
C	 -2.281882	 1.140315	 -1.255151
H	 -1.199409	 1.293595	 0.569456
H	 -0.379454	 0.382138	 -0.686007
O	 -2.287428	 0.294916	 -2.369762
H	 -3.288231	 1.226956	 -0.846014
H	 -1.940600	 2.133968	 -1.536959
C	 -3.047247	 0.759856	 -3.439378
H	 -2.977046	 0.029267	 -4.233739
H	 -4.093352	 0.878459	 -3.162649
H	 -2.676511	 1.715270	 -3.804820

8 5 3 6 F

5 8 11 13 F

11 8 5 3 F

