%nprocshared=1
%mem=2GB
#HF/6-31G* nosymm scf=tight 

Mol

0 1
H	 -1.196807	 -1.440166	 0.256410
N	 -0.626943	 -0.667432	 -0.000092
C	 -0.859236	 -0.042673	 -1.282447
C	 0.325755	 -0.252874	 0.869779
H	 -1.540362	 -0.634240	 -1.885043
H	 0.085392	 0.034366	 -1.795742
H	 -1.276019	 0.951579	 -1.160852
C	 1.674978	 -0.919497	 0.690344
O	 0.127974	 0.574320	 1.716447
H	 2.068026	 -0.726742	 -0.302990
H	 2.359261	 -0.526889	 1.427442
H	 1.590945	 -1.994555	 0.814939

4 2 3 5 F

