%nprocshared=1
%mem=2GB
#HF/6-31G* nosymm scf=tight 

Mol

0 1
H	 2.591676	 2.013956	 0.335017
O	 3.341076	 1.666752	 -0.126416
C	 3.569581	 0.339145	 0.272707
C	 2.539767	 -0.640285	 -0.279495
H	 4.553106	 0.084646	 -0.100901
H	 3.608576	 0.269204	 1.359154
C	 1.115811	 -0.397273	 0.226630
H	 2.556196	 -0.582511	 -1.364741
H	 2.852081	 -1.648031	 -0.010655
C	 0.115918	 -1.429151	 -0.302766
H	 0.797950	 0.599468	 -0.066350
H	 1.109961	 -0.420744	 1.316472
C	 -1.188920	 -0.839366	 -0.850389
H	 0.593906	 -2.026189	 -1.077311
H	 -0.129181	 -2.118386	 0.502580
C	 -1.032383	 0.005244	 -2.117910
H	 -1.872026	 -1.659273	 -1.062367
H	 -1.666337	 -0.241721	 -0.075321
C	 -2.370890	 0.483189	 -2.684837
H	 -0.510080	 -0.577473	 -2.875373
H	 -0.407431	 0.871710	 -1.915493
C	 -2.217101	 1.331866	 -3.946487
H	 -2.997164	 -0.378838	 -2.904329
H	 -2.898521	 1.057451	 -1.926079
H	 -1.721488	 0.774152	 -4.736137
H	 -3.182550	 1.653376	 -4.324870
H	 -1.625745	 2.222066	 -3.751024

14 10 13 16 F

10 7 4 8 F

8 4 3 2 F

10 13 16 20 F

20 16 19 22 F

4 3 2 1 F

