%nprocshared=1
%mem=2GB
#HF/6-31G* nosymm scf=tight 

Mol

0 1
O	 -3.853486	 4.767425	 2.367791
C	 -3.589812	 4.457530	 1.246542
C	 -2.652680	 3.307590	 0.923494
C	 -4.178810	 5.198743	 0.063816
C	 -2.933125	 2.035105	 1.717450
H	 -2.717326	 3.115698	 -0.146734
H	 -1.633034	 3.650735	 1.093720
C	 -4.171371	 2.159877	 2.606798
H	 -2.065431	 1.795799	 2.324054
H	 -3.055553	 1.205503	 1.028304
C	 -3.936950	 3.036594	 3.838116
H	 -4.996094	 2.570608	 2.026126
H	 -4.489894	 1.169078	 2.927623
C	 -3.399968	 4.427831	 3.497346
H	 -3.239508	 2.536570	 4.507870
H	 -4.869487	 3.137006	 4.390645
C	 -1.929461	 4.415018	 3.081258
H	 -3.997445	 4.858252	 2.696358
H	 -3.525646	 5.082931	 4.356943
H	 -1.776127	 3.794817	 2.202628
H	 -1.578157	 5.414880	 2.845541
H	 -1.300832	 4.022179	 3.875391
H	 -4.744894	 4.518640	 -0.565967
H	 -4.826996	 5.989572	 0.414927
H	 -3.388670	 5.622899	 -0.548887

9 5 8 12 F

15 11 8 12 F

15 11 14 18 F

1 2 3 6 F

