%nprocshared=1
%mem=2GB
#HF/6-31G* nosymm scf=tight 
prop=(read,field)

Mol

0 1
H	 2.343997	 -0.101242	 -0.000192
O	 1.586775	 -0.678603	 -0.000226
C	 0.489672	 0.077336	 0.000046
C	 -0.763888	 -0.759127	 0.000191
O	 0.537984	 1.264025	 0.000257
C	 -2.038127	 0.075794	 -0.000248
H	 -0.717043	 -1.412341	 -0.866059
H	 -0.717217	 -1.411661	 0.866967
H	 -2.086242	 0.712564	 -0.875098
H	 -2.908244	 -0.571619	 -0.000042
H	 -2.086335	 0.713343	 0.874068

@grid.dat /N
