%nprocshared=1
%mem=2GB
#HF/6-31G* nosymm scf=tight 

Mol

0 1
H	 -2.550315	 0.777705	 0.916339
C	 -2.544604	 0.097459	 0.073380
C	 -1.289387	 -0.766934	 0.076988
H	 -2.602591	 0.694379	 -0.828621
H	 -3.431534	 -0.525001	 0.129719
C	 -0.000005	 0.033229	 -0.000001
H	 -1.299935	 -1.466147	 -0.756910
H	 -1.248127	 -1.383631	 0.972744
C	 1.290528	 -0.768786	 0.000276
O	 -0.000875	 1.224810	 -0.057606
C	 2.545731	 0.095645	 -0.000061
H	 1.275672	 -1.427874	 -0.865626
H	 1.275566	 -1.427086	 0.866768
H	 2.577157	 0.734767	 -0.874036
H	 3.433520	 -0.528139	 0.000137
H	 2.577172	 0.735117	 0.873581
