%nprocshared=1
%mem=2GB
#HF/6-31G* nosymm scf=tight 

Mol

0 1
H	 2.059791	 -0.767067	 -2.304533
C	 1.334667	 -0.988823	 -1.529971
C	 1.322923	 0.120767	 -0.479465
H	 0.364335	 -1.094894	 -2.004922
H	 1.600800	 -1.945488	 -1.091156
C	 0.306652	 -0.176050	 0.621399
H	 1.072033	 1.069711	 -0.942052
H	 2.303925	 0.225063	 -0.031112
N	 -1.068537	 -0.011044	 0.085269
H	 0.372515	 -1.192590	 0.973735
H	 0.391664	 0.520566	 1.441230
O	 -1.656956	 -0.997225	 -0.235017
O	 -1.478635	 1.104830	 -0.018026

12 9 6 3 F

