%nprocshared=1
%mem=2GB
#HF/6-31G* nosymm scf=tight 

Mol

0 1
H	 0.939911	 -0.503853	 -3.475805
N	 0.184173	 -0.461082	 -2.819622
C	 0.520598	 -1.177488	 -1.597694
H	 -0.609929	 -0.880364	 -3.265083
C	 -0.591315	 -1.028497	 -0.564638
H	 1.435869	 -0.746002	 -1.204050
H	 0.721130	 -2.238887	 -1.763879
C	 -0.679275	 0.379305	 0.025956
H	 -1.533268	 -1.298620	 -1.033246
H	 -0.429322	 -1.746767	 0.238595
C	 -0.791153	 1.473151	 -1.037697
H	 0.199293	 0.568028	 0.641058
H	 -1.537161	 0.441455	 0.693801
C	 -2.115055	 2.234023	 -0.975523
H	 0.033362	 2.173024	 -0.921214
H	 -0.676491	 1.028719	 -2.024099
H	 -2.243718	 2.718807	 -0.011807
H	 -2.163946	 3.002377	 -1.740928
H	 -2.958889	 1.565841	 -1.123406

6 3 5 9 F

12 8 5 9 F

1 2 3 6 F

