%nprocshared=1
%mem=2GB
#HF/6-31G* nosymm scf=tight 

Mol

0 1
H	 1.411206	 1.385159	 -3.268069
O	 1.380113	 0.771436	 -3.987408
C	 1.985791	 -0.437314	 -3.605138
C	 1.142148	 -1.250156	 -2.629288
H	 2.127720	 -0.997703	 -4.520286
H	 2.972957	 -0.252168	 -3.183233
C	 0.919970	 -0.565332	 -1.278540
H	 0.182436	 -1.459503	 -3.094575
H	 1.634389	 -2.208492	 -2.472259
C	 0.115918	 -1.429151	 -0.302766
H	 0.405094	 0.378159	 -1.436944
H	 1.884672	 -0.325056	 -0.831372
C	 0.579824	 -2.886769	 -0.200376
H	 0.142681	 -0.972775	 0.685086
H	 -0.927203	 -1.420813	 -0.611842
C	 0.727785	 -3.417141	 1.228361
H	 -0.136855	 -3.511425	 -0.729518
H	 1.526011	 -3.000648	 -0.727253
C	 1.089510	 -4.903113	 1.278129
H	 -0.203924	 -3.256926	 1.769064
H	 1.489685	 -2.852392	 1.760217
C	 1.244105	 -5.433542	 2.703053
H	 0.324002	 -5.477389	 0.760738
H	 2.015148	 -5.066637	 0.730097
H	 0.323796	 -5.314109	 3.267847
H	 1.498359	 -6.488998	 2.704892
H	 2.028698	 -4.903778	 3.236090

14 10 7 4 F

10 7 4 8 F

8 4 3 2 F

10 13 16 20 F

20 16 19 22 F

4 3 2 1 F

