%nprocshared=1
%mem=2GB
#HF/6-31G* nosymm scf=tight 

Mol

0 1
H	 -3.489899	 1.228218	 -1.029938
O	 -3.452007	 0.283848	 -0.965577
C	 -3.181085	 -0.079926	 0.364119
C	 -1.765924	 0.277073	 0.805136
H	 -3.327791	 -1.152017	 0.410903
H	 -3.905698	 0.375695	 1.036898
C	 -1.534759	 1.781140	 0.956345
H	 -1.551507	 -0.224423	 1.749323
H	 -1.067087	 -0.133880	 0.078524
C	 -1.582516	 2.532781	 -0.375546
H	 -0.575735	 1.947891	 1.437153
H	 -2.287897	 2.189522	 1.628209
C	 -2.798430	 2.155885	 -1.226185
H	 -1.584200	 3.602122	 -0.178248
H	 -0.673546	 2.327886	 -0.939813
C	 -2.794175	 0.714565	 -1.748425
H	 -2.874718	 2.841946	 -2.068322
H	 -3.697924	 2.304812	 -0.632428
C	 -4.120400	 0.254704	 -2.356751
H	 -2.540217	 0.051003	 -0.925333
H	 -2.000692	 0.601113	 -2.484439
H	 -4.935371	 0.368610	 -1.646830
H	 -4.072753	 -0.792850	 -2.638171
H	 -4.376326	 0.818754	 -3.247545

20 16 13 17 F

17 13 10 7 F

13 10 7 11 F

11 7 4 3 F

1 2 3 5 F

