%nprocshared=1
%mem=2GB
#HF/6-31G* nosymm scf=tight 

Mol

0 1
H	 -2.698709	 -0.000305	 0.034435
C	 -1.693833	 0.000034	 0.434417
O	 -0.828952	 -0.000968	 -0.659236
H	 -1.574200	 0.882896	 1.055746
H	 -1.574147	 -0.881698	 1.057355
C	 -1.153944	 0.793106	 -1.776523
C	 -2.295141	 0.202504	 -2.602220
C	 -1.401939	 2.253619	 -1.404559
H	 -0.253604	 0.752230	 -2.377978
H	 -2.109247	 -0.846830	 -2.804435
H	 -2.374648	 0.723321	 -3.551253
H	 -3.253716	 0.290644	 -2.100692
H	 -0.598236	 2.623739	 -0.777239
H	 -1.441916	 2.863406	 -2.301792
H	 -2.340037	 2.389554	 -0.876037

9 6 3 2 F

