%nprocshared=1
%mem=2GB
#HF/6-31G* nosymm scf=tight 

Mol

0 1
H	 1.148083	 -1.049780	 0.784252
O	 1.319262	 -0.618148	 -0.041729
C	 0.709265	 0.639550	 -0.033818
C	 -0.645309	 0.664368	 0.624280
H	 0.615129	 0.936511	 -1.072161
H	 1.351941	 1.378364	 0.443828
C	 -1.317443	 -0.396456	 1.023847
H	 -1.067840	 1.648130	 0.759052
H	 -0.935480	 -1.392132	 0.889078
H	 -2.282671	 -0.304785	 1.488505

5 3 4 7 F

3 4 7 9 F

