%nprocshared=1
%mem=2GB
#HF/6-31G* nosymm scf=tight 

Mol

0 1
O	 -0.488453	 0.057968	 1.132425
C	 -0.451170	 -1.129930	 1.097049
C	 0.801727	 -1.959116	 0.945507
O	 -1.528589	 -1.897310	 1.185968
C	 1.124911	 -2.785238	 2.184071
H	 1.613075	 -1.280220	 0.700432
H	 0.669725	 -2.590969	 0.072237
H	 1.272053	 -2.149836	 3.048928
H	 2.030738	 -3.360307	 2.024106
H	 0.320287	 -3.472711	 2.414906
C	 -1.338717	 -3.307233	 1.127090
C	 -0.900304	 -3.647673	 -0.281528
H	 -2.266222	 -3.798982	 1.386897
H	 -0.594543	 -3.593630	 1.857689
H	 -1.653847	 -3.349667	 -1.001614
H	 -0.743651	 -4.717750	 -0.371221
H	 0.027022	 -3.143281	 -0.528331

2 4 11 13 F

4 2 3 6 F

