%nprocshared=1
%mem=2GB
#HF/6-31G* nosymm scf=tight 

Mol

0 1
H	 2.841005	 1.904980	 -1.197500
O	 2.265625	 1.420010	 -0.623539
C	 0.933123	 1.800208	 -0.858179
C	 0.031547	 1.023609	 0.088541
H	 0.649351	 1.578978	 -1.885515
H	 0.810587	 2.871125	 -0.712494
C	 -1.134819	 0.293262	 -0.585751
H	 -0.364656	 1.721166	 0.821156
H	 0.648061	 0.310390	 0.633012
C	 -1.917817	 -0.639439	 0.339494
H	 -0.758119	 -0.268455	 -1.433105
H	 -1.813832	 1.041889	 -0.986690
H	 -2.777680	 -1.057197	 -0.174994
H	 -1.310268	 -1.471279	 0.680599
H	 -2.283753	 -0.111424	 1.216626

8 4 7 11 F

1 2 3 4 F

