%nprocshared=1
%mem=2GB
#HF/6-31G* nosymm scf=tight 

Mol

0 1
H	 2.451652	 -2.178703	 0.543297
O	 2.773837	 -1.297590	 0.410870
C	 1.759943	 -0.431505	 0.213148
C	 1.217793	 0.184379	 1.336848
C	 1.258604	 -0.147096	 -1.042202
H	 1.624862	 -0.053336	 2.301547
C	 0.178105	 1.080650	 1.199693
H	 1.657169	 -0.606906	 -1.924952
C	 0.214202	 0.757750	 -1.143678
H	 -0.234471	 1.551541	 2.072562
C	 -0.343217	 1.383177	 -0.051125
N	 -0.312428	 1.055060	 -2.473999
H	 -1.149496	 2.076245	 -0.173501
O	 0.298281	 0.647134	 -3.415626
O	 -1.321163	 1.687586	 -2.542029

11 9 12 14 F

