%nprocshared=1
%mem=2GB
#HF/6-31G* nosymm scf=tight 

Mol

0 1
H	 -3.087223	 -0.051223	 1.216717
O	 -2.520145	 -0.648554	 1.682217
C	 -1.688243	 -1.319553	 0.770212
C	 -0.591172	 -0.432419	 0.192150
H	 -1.243770	 -2.136826	 1.323551
H	 -2.278981	 -1.757176	 -0.033712
C	 0.167351	 0.383275	 1.241985
H	 0.106437	 -1.059918	 -0.356441
H	 -1.046621	 0.242610	 -0.530532
C	 -0.700119	 1.466487	 1.889260
H	 1.035642	 0.842909	 0.778118
H	 0.542656	 -0.284507	 2.017585
C	 -2.087810	 0.996018	 2.340165
H	 -0.169273	 1.889055	 2.740427
H	 -0.826762	 2.279579	 1.177542
C	 -3.034785	 0.600176	 1.203932
H	 -1.960810	 0.140000	 2.999650
H	 -2.553032	 1.774644	 2.942782
C	 -4.465221	 1.099239	 1.418936
H	 -3.044660	 -0.484477	 1.106250
H	 -2.666261	 0.987989	 0.257311
C	 -5.411106	 0.710962	 0.283063
H	 -4.847259	 0.703375	 2.357459
H	 -4.456195	 2.181939	 1.526468
H	 -5.467273	 -0.368187	 0.171231
H	 -6.416738	 1.077069	 0.465559
H	 -5.076338	 1.123259	 -0.664726

14 10 7 4 F

14 10 13 16 F

10 7 4 8 F

8 4 3 2 F

20 16 19 22 F

4 3 2 1 F

