%nprocshared=1
%mem=2GB
#HF/6-31G* nosymm scf=tight 

Mol

0 1
H	 -3.571158	 0.540474	 0.139285
O	 -3.106200	 -0.271124	 -0.011510
C	 -1.775819	 -0.076055	 -0.001477
C	 -1.003964	 -0.169777	 -1.155798
C	 -1.184241	 0.227433	 1.218358
H	 -1.470356	 -0.405425	 -2.097211
C	 0.357163	 0.040500	 -1.085538
H	 -1.800798	 0.294114	 2.094533
C	 0.178258	 0.435036	 1.272506
H	 0.964816	 -0.028630	 -1.968192
C	 0.964615	 0.345225	 0.128302
H	 0.637190	 0.670248	 2.217555
C	 2.421696	 0.570014	 0.201769
O	 2.995702	 0.997896	 1.154760
H	 2.975262	 0.311446	 -0.707007

7 11 13 14 F

