%nprocshared=1
%mem=2GB
#HF/6-31G* nosymm scf=tight 

Mol

0 1
H	 -2.906976	 2.179386	 0.659337
C	 -2.247548	 1.993173	 1.504689
O	 -0.926886	 1.838785	 1.095599
H	 -2.285038	 2.843311	 2.171773
H	 -2.607922	 1.113293	 2.036073
C	 -0.719715	 0.768384	 0.229244
C	 0.719720	 0.768376	 -0.229267
H	 -0.935008	 -0.174039	 0.734399
H	 -1.372398	 0.840705	 -0.638385
O	 1.392611	 -0.295398	 0.366430
H	 0.750534	 0.687200	 -1.313918
H	 1.185043	 1.714359	 0.050526
C	 2.706965	 -0.449871	 -0.062409
H	 2.756559	 -0.644779	 -1.131878
H	 3.305899	 0.433456	 0.155466
H	 3.125548	 -1.294566	 0.467107

7 10 13 14 F

2 3 6 7 F

