%nprocshared=1
%mem=2GB
#HF/6-31G* nosymm scf=tight opt=ModRedundant

Mol

0 1
H	 2.650000	 2.027000	 0.328000
O	 3.399000	 1.680000	 -0.133000
C	 3.629000	 0.353000	 0.267000
C	 2.599000	 -0.628000	 -0.283000
H	 4.612000	 0.098000	 -0.107000
H	 3.668000	 0.284000	 1.354000
C	 1.175000	 -0.385000	 0.223000
H	 2.615000	 -0.571000	 -1.369000
H	 2.912000	 -1.635000	 -0.013000
C	 0.175000	 -1.416000	 -0.307000
H	 0.857000	 0.612000	 -0.069000
H	 1.169000	 -0.409000	 1.313000
C	 -1.251000	 -1.269000	 0.237000
H	 0.152000	 -1.367000	 -1.394000
H	 0.538000	 -2.411000	 -0.057000
C	 -1.978000	 0.006000	 -0.197000
H	 -1.832000	 -2.129000	 -0.091000
H	 -1.227000	 -1.319000	 1.325000
C	 -3.431000	 0.056000	 0.281000
H	 -1.956000	 0.080000	 -1.284000
H	 -1.455000	 0.882000	 0.178000
C	 -4.158000	 1.331000	 -0.146000
H	 -3.966000	 -0.810000	 -0.102000
H	 -3.455000	 -0.027000	 1.366000
H	 -4.179000	 1.426000	 -1.228000
H	 -5.185000	 1.335000	 0.207000
H	 -3.668000	 2.214000	 0.254000
