%nprocshared=1
%mem=2GB
#HF/6-31G* nosymm scf=tight 

Mol

0 1
H	 -2.301730	 1.176996	 -1.136602
C	 -1.456915	 1.847292	 -1.034933
C	 -0.140930	 1.080660	 -1.091661
H	 -1.563577	 2.366525	 -0.090315
H	 -1.502144	 2.578927	 -1.834896
C	 -0.000005	 0.033229	 -0.000001
H	 0.705379	 1.760541	 -1.014734
H	 -0.026247	 0.581469	 -2.051897
C	 1.290528	 -0.768786	 0.000276
O	 -0.854949	 -0.149192	 0.811773
C	 2.545731	 0.095645	 -0.000061
H	 1.275672	 -1.427874	 -0.865626
H	 1.275566	 -1.427086	 0.866768
H	 2.577157	 0.734767	 -0.874036
H	 3.433520	 -0.528139	 0.000137
H	 2.577172	 0.735117	 0.873581
