%nprocshared=1
%mem=2GB
#HF/6-31G* nosymm scf=tight 

Mol

0 1
H	 -2.644160	 0.037386	 0.290061
C	 -1.656947	 -0.409750	 0.300221
C	 -0.603454	 0.661669	 0.000000
H	 -1.630871	 -1.198272	 -0.442069
H	 -1.492352	 -0.853437	 1.274639
C	 0.763625	 0.112519	 0.000000
H	 -0.780661	 1.113028	 -0.969248
H	 -0.643020	 1.455678	 0.736582
N	 1.813038	 -0.320305	 0.000000
