%nprocshared=1
%mem=2GB
#HF/6-31G* nosymm scf=tight 

Mol

0 1
H	 -0.495152	 -1.652460	 -0.002780
N	 -0.626943	 -0.667432	 -0.000092
C	 -1.979713	 -0.158776	 0.000050
C	 0.469283	 0.129080	 0.004915
H	 -2.520245	 -0.492427	 -0.879443
H	 -1.934741	 0.918111	 -0.004428
H	 -2.517790	 -0.485056	 0.883818
C	 1.788931	 -0.616248	 0.003748
O	 0.411092	 1.327749	 0.009360
H	 1.874108	 -1.242307	 -0.878947
H	 2.595410	 0.101545	 0.011525
H	 1.868796	 -1.255630	 0.877332

3 2 4 9 F

