%nprocshared=1
%mem=2GB
#HF/6-31G* nosymm scf=tight 
prop=(read,field)

Mol

0 1
H	 3.302782	 -0.411386	 0.000000
C	 2.242201	 -0.233651	 0.000000
C	 1.362306	 -1.309125	 0.000000
C	 1.761908	 1.065309	 0.000000
H	 1.742839	 -2.314471	 0.000000
C	 -0.000330	 -1.084433	 0.000000
H	 2.445571	 1.894676	 0.000000
C	 0.394666	 1.289399	 0.000000
H	 -0.696943	 -1.901673	 0.000000
C	 -0.488705	 0.219070	 0.000000
H	 0.015214	 2.296853	 0.000000
C	 -1.950199	 0.470304	 0.000000
O	 -2.781829	 -0.381657	 -0.000000
H	 -2.238267	 1.526358	 0.000000

@grid.dat /N
