%nprocshared=24
%mem=2GB
#HF/6-31G* nosymm scf=tight 

Mol

0 1
H	 -2.463887	 -1.404751	 3.174456
C	 -2.393282	 -1.145213	 2.135980
C	 -1.224516	 -1.150904	 1.538115
H	 -3.292956	 -0.884230	 1.609638
O	 -0.305841	 -2.126847	 1.762015
H	 -0.933308	 -0.399877	 0.825804
C	 0.964261	 -1.967719	 1.230083
C	 0.997004	 -2.295045	 -0.245831
H	 1.701149	 -2.587275	 1.729199
H	 1.241957	 -0.930853	 1.345475
F	 -0.136829	 -1.904253	 -0.809464
F	 1.986904	 -1.673376	 -0.864322
F	 1.134418	 -3.586206	 -0.463385

11 8 7 9 F

3 5 7 9 F

6 3 5 7 F

