%nprocshared=1
%mem=2GB
#HF/6-31G* nosymm scf=tight 

Mol

0 1
H	 -3.135461	 -1.215070	 0.001379
O	 -2.310168	 -0.871793	 -0.309793
C	 -2.026376	 0.340750	 0.341611
C	 -0.673256	 0.843270	 -0.132153
H	 -2.792215	 1.080697	 0.115987
H	 -2.013526	 0.200402	 1.421792
C	 0.486613	 -0.083066	 0.235839
H	 -0.715586	 0.970948	 -1.210718
H	 -0.508072	 1.829858	 0.297090
C	 1.840406	 0.433480	 -0.254303
H	 0.300215	 -1.068318	 -0.178947
H	 0.519509	 -0.203625	 1.318070
C	 2.775869	 -0.686343	 -0.708813
H	 1.683557	 1.127619	 -1.077277
H	 2.320230	 1.004215	 0.538460
H	 2.338425	 -1.254040	 -1.525056
H	 3.726621	 -0.290626	 -1.052941
H	 2.980401	 -1.379809	 0.102224

10 7 4 8 F

2 3 4 8 F

1 2 3 4 F

