%nprocshared=1
%mem=2GB
#HF/6-31G* nosymm scf=tight 

Mol

0 1
H	 -3.806972	 -2.381578	 0.010425
C	 -2.735430	 -2.288940	 0.010586
C	 -1.943193	 -3.427082	 0.022503
C	 -2.151108	 -1.032213	 -0.001118
H	 -2.397636	 -4.401128	 0.031573
C	 -0.565476	 -3.307166	 0.022703
H	 -2.766844	 -0.151083	 -0.010344
C	 -0.772204	 -0.909754	 -0.000940
H	 0.063193	 -4.176857	 0.031830
C	 0.024578	 -2.048508	 0.010986
H	 -0.315772	 0.060766	 -0.009973
C	 1.512891	 -1.973807	 0.011735
O	 1.970282	 -0.730723	 0.000018
O	 2.227120	 -2.927030	 0.021775
C	 3.377318	 -0.566646	 -0.000065
H	 3.695437	 -0.028981	 -0.881264
H	 3.789299	 -1.563704	 0.000236
H	 3.695516	 -0.028316	 0.880770

10 12 13 15 F

13 12 10 6 F

