%nprocshared=1
%mem=2GB
#HF/6-31G* nosymm scf=tight 

Mol

0 1
H	 1.579370	 0.595506	 0.371742
O	 1.643464	 0.785819	 -0.553494
C	 2.084470	 -0.354605	 -1.240469
C	 1.313971	 -1.590018	 -0.809479
H	 2.004094	 -0.230697	 -2.316826
H	 3.131051	 -0.480323	 -1.001067
O	 -0.043959	 -1.331029	 -0.978982
H	 1.532627	 -1.822570	 0.234595
H	 1.629140	 -2.443823	 -1.406362
C	 -0.381609	 -0.813417	 -2.226865
H	 0.366496	 -0.106062	 -2.579876
H	 -0.435693	 -1.641239	 -2.920182
H	 -1.346371	 -0.311084	 -2.200645

8 4 3 5 F

1 2 3 5 F

10 7 4 8 F

