%nprocshared=1
%mem=2GB
#HF/6-31G* nosymm scf=tight 

Mol

0 1
H	 1.255024	 -1.028946	 -0.672533
O	 1.426464	 -0.104208	 -0.787944
C	 0.693070	 0.616957	 0.158638
C	 -0.795902	 0.595680	 -0.067389
H	 1.054570	 1.637700	 0.107605
H	 0.906442	 0.261554	 1.166203
C	 -1.522220	 -0.487727	 -0.255690
H	 -1.269419	 1.565341	 -0.071975
H	 -1.071454	 -1.449856	 -0.418625
H	 -2.596511	 -0.445958	 -0.267127

5 3 2 1 F

5 3 4 7 F

