%nprocshared=1
%mem=2GB
#HF/6-31G* nosymm scf=tight 

Mol

0 1
H	 -2.497551	 1.693905	 1.944682
C	 -2.039679	 0.729906	 2.157288
O	 -0.761271	 0.643146	 1.615547
H	 -1.948449	 0.614370	 3.228489
H	 -2.691565	 -0.053793	 1.773508
C	 -0.719715	 0.768384	 0.229244
C	 0.719720	 0.768376	 -0.229267
H	 -1.245849	 -0.063078	 -0.241446
H	 -1.197867	 1.692046	 -0.090483
O	 1.392611	 -0.295398	 0.366430
H	 0.750534	 0.687200	 -1.313918
H	 1.185043	 1.714359	 0.050526
C	 2.706965	 -0.449871	 -0.062409
H	 2.756559	 -0.644779	 -1.131878
H	 3.305899	 0.433456	 0.155466
H	 3.125548	 -1.294566	 0.467107

7 10 13 14 F

2 3 6 7 F

