%nprocshared=1
%mem=2GB
#HF/6-31G* nosymm scf=tight 

Mol

0 1
H	 -4.399898	 6.128573	 2.727178
C	 -4.551394	 5.154160	 2.246355
C	 -5.582677	 4.272657	 2.903636
O	 -3.924097	 4.860616	 1.280912
C	 -5.095650	 2.827661	 3.079838
H	 -5.859361	 4.718458	 3.852012
H	 -6.463395	 4.278048	 2.262574
C	 -4.924242	 2.075801	 1.757482
H	 -4.147893	 2.846391	 3.609640
H	 -5.790373	 2.288005	 3.721623
C	 -6.253274	 1.803461	 1.050150
H	 -4.414071	 1.133704	 1.947285
H	 -4.273821	 2.641404	 1.092964
C	 -7.144331	 3.045428	 0.963640
H	 -6.049587	 1.421284	 0.053062
H	 -6.787384	 1.014315	 1.577747
C	 -8.476090	 2.930578	 1.714174
H	 -7.340708	 3.275648	 -0.082366
H	 -6.595566	 3.895780	 1.362978
C	 -9.441535	 1.892099	 1.140506
H	 -8.962502	 3.902772	 1.700334
H	 -8.281521	 2.704290	 2.760528
H	 -9.641833	 2.084110	 0.089658
H	 -9.050397	 0.883621	 1.223924
H	 -10.390864	 1.916855	 1.666962

6 3 5 8 F

6 3 2 4 F

3 5 8 12 F

12 8 11 14 F

20 17 14 18 F

