%nprocshared=1
%mem=2GB
#HF/6-31G* nosymm scf=tight 

Mol

0 1
H	 0.049649	 -0.203409	 -0.560952
N	 -0.626943	 -0.667432	 -0.000092
C	 -1.979713	 -0.158776	 0.000050
C	 -0.235018	 -1.744209	 0.723172
H	 -2.520245	 -0.492427	 -0.879443
H	 -1.934741	 0.918111	 -0.004428
H	 -2.517790	 -0.485056	 0.883818
C	 1.229787	 -2.103449	 0.573917
O	 -0.978790	 -2.369036	 1.427878
H	 1.860365	 -1.279350	 0.892644
H	 1.440517	 -2.970221	 1.182191
H	 1.466356	 -2.325545	 -0.461962

3 2 4 9 F

