%nprocshared=8
%mem=2GB
#B3LYP/6-31G* nosymm scf=tight
# opt=ModRedundant  EmpiricalDispersion=GD3

Mol

1 1
C	 -0.516152	 1.363756	 -1.498940
C	 0.368328	 2.457997	 -1.536326
C	 -0.127756	 3.749481	 -1.389057
C	 -1.497164	 3.955748	 -1.195660
C	 -2.377705	 2.870351	 -1.153395
C	 -1.894682	 1.574877	 -1.308819
C	 -0.000000	 -0.000000	 -1.658508
H	 1.426572	 2.305594	 -1.729019
H	 0.550714	 4.595112	 -1.435110
H	 -1.879174	 4.965082	 -1.077561
H	 -3.437916	 3.033343	 -0.989327
H	 -2.576409	 0.732461	 -1.232526
N	 -0.712589	 -0.905950	 -2.322235
N	 1.179684	 -0.328191	 -1.139183
H	 1.620994	 -1.226091	 -1.299771
H	 1.643273	 0.305184	 -0.501056
H	 -1.377189	 -1.485970	 -1.827091
H	 -0.673431	 -1.006470	 -3.329771

1 7 13 17 F
