%nprocshared=1
%mem=2GB
#HF/6-31G* nosymm scf=tight 

Mol

0 1
H	 1.148083	 -1.049780	 0.784252
O	 1.319262	 -0.618148	 -0.041729
C	 0.709265	 0.639550	 -0.033818
C	 -0.526026	 0.720965	 0.824091
H	 0.452033	 0.857357	 -1.064155
H	 1.413513	 1.409256	 0.280208
C	 -1.120109	 -0.303131	 1.402931
H	 -0.929143	 1.714208	 0.948377
H	 -0.756978	 -1.308052	 1.285890
H	 -2.001523	 -0.171671	 2.004433

5 3 4 7 F

3 4 7 9 F

