%nprocshared=24
%mem=2GB
#HF/6-31G* nosymm scf=tight 

Mol

0 1
H	 -3.793000	 1.004000	 -0.340000
C	 -3.097000	 0.384000	 0.191000
C	 -1.977000	 0.015000	 -0.386000
H	 -3.341000	 0.079000	 1.192000
O	 -1.081000	 -0.797000	 0.234000
H	 -1.712000	 0.315000	 -1.384000
C	 0.151000	 -0.997000	 -0.369000
C	 1.143000	 0.077000	 0.017000
H	 0.082000	 -1.019000	 -1.451000
H	 0.537000	 -1.944000	 -0.023000
F	 2.168121	 0.052701	 -0.822354
F	 0.606275	 1.284255	 -0.041027
F	 1.611573	 -0.096883	 1.234996

3 5 7 9 F

6 3 2 1 F

6 3 5 7 F

