%nprocshared=1
%mem=2GB
#HF/6-31G* nosymm scf=tight 

Mol

0 1
H	 -3.269016	 -0.876744	 0.468090
C	 -2.809304	 0.000122	 0.025886
N	 -1.391456	 0.000019	 0.300661
H	 -3.037557	 -0.000063	 -1.044252
H	 -3.269223	 0.876956	 0.468000
C	 -0.611531	 -0.459035	 -0.831935
C	 -1.061855	 -0.756704	 1.492526
H	 -0.851529	 -1.494511	 -1.092122
H	 -0.847338	 0.159568	 -1.691753
C	 0.875328	 -0.354490	 -0.530454
H	 -1.626118	 -0.355193	 2.327962
H	 -1.331662	 -1.811886	 1.386212
C	 0.425003	 -0.652157	 1.794007
H	 1.439591	 -0.756000	 -1.365889
H	 1.145135	 0.700693	 -0.424139
N	 1.204928	 -1.111212	 0.661411
H	 0.660810	 -1.270762	 2.653825
H	 0.665002	 0.383318	 2.054195
C	 2.622776	 -1.111316	 0.936186
H	 3.161072	 -1.519485	 0.088007
H	 2.830346	 -1.738174	 1.796298
H	 3.018860	 -0.112020	 1.140689
