%nprocshared=1
%mem=2GB
#HF/6-31G* nosymm scf=tight 

Mol

0 1
O	 2.820769	 1.421519	 0.255491
C	 2.710505	 0.370058	 0.807787
C	 1.417122	 -0.424663	 0.785051
C	 3.864600	 -0.243809	 1.573546
C	 0.291004	 0.242674	 0.000989
H	 1.638694	 -1.410069	 0.377289
H	 1.115998	 -0.600759	 1.816902
C	 -0.994322	 -0.586602	 0.000262
H	 0.620558	 0.413850	 -1.018924
H	 0.097069	 1.223974	 0.422400
C	 -2.259874	 0.272531	 0.000494
H	 -1.004862	 -1.240012	 -0.870939
H	 -1.005220	 -1.241071	 0.870675
C	 -3.549786	 -0.549746	 -0.000374
H	 -2.250389	 0.926680	 -0.869574
H	 -2.250838	 0.925513	 0.871430
C	 -4.809590	 0.315458	 -0.000369
H	 -3.560515	 -1.202009	 -0.871156
H	 -3.561123	 -1.202955	 0.869711
H	 -4.844746	 0.956611	 -0.876632
H	 -5.706986	 -0.295590	 -0.001609
H	 -4.845960	 0.954827	 0.877144
H	 4.117724	 -1.216557	 1.162076
H	 4.726257	 0.406823	 1.518246
H	 3.590969	 -0.395287	 2.613649

15 11 8 12 F

15 11 14 18 F

1 2 3 6 F

9 5 3 6 F

