%nprocshared=1
%mem=2GB
#HF/6-31G* nosymm scf=tight 

Mol

0 1
O	 2.544561	 1.850230	 -0.436504
C	 1.838777	 1.723109	 -1.389639
C	 0.569680	 0.890692	 -1.352025
C	 2.167518	 2.390316	 -2.709457
C	 0.291004	 0.242674	 0.000989
H	 -0.258633	 1.532446	 -1.649411
H	 0.643551	 0.134968	 -2.132938
C	 -0.994322	 -0.586602	 0.000262
H	 0.231019	 1.016052	 0.760210
H	 1.134073	 -0.383189	 0.276087
C	 -2.259874	 0.272531	 0.000494
H	 -1.004862	 -1.240012	 -0.870939
H	 -1.005220	 -1.241071	 0.870675
C	 -3.400792	 -0.330048	 -0.821222
H	 -2.022588	 1.262114	 -0.386081
H	 -2.594447	 0.419316	 1.025926
C	 -4.661395	 0.533978	 -0.816352
H	 -3.067926	 -0.476133	 -1.846738
H	 -3.639908	 -1.318658	 -0.434786
H	 -4.462923	 1.519153	 -1.228891
H	 -5.451514	 0.081114	 -1.407391
H	 -5.039640	 0.669709	 0.192931
H	 1.363265	 3.056339	 -3.008133
H	 3.085857	 2.952964	 -2.615040
H	 2.277291	 1.646185	 -3.492945

9 5 8 12 F

15 11 14 18 F

1 2 3 6 F

9 5 3 6 F

