%nprocshared=1
%mem=2GB
#HF/6-31G* nosymm scf=tight 

Mol

0 1
H	 -0.821032	 -1.655889	 0.000000
O	 -1.037828	 -0.728600	 0.000000
C	 0.100509	 -0.036935	 0.000000
C	 0.452571	 0.460238	 -1.372871
O	 0.734070	 0.144296	 0.987410
H	 0.550995	 -0.379826	 -2.050602
H	 1.378190	 1.013956	 -1.330715
H	 -0.343962	 1.093088	 -1.746704
