%nprocshared=1
%mem=2GB
#HF/6-31G* nosymm scf=tight 

Mol

0 1
H	 2.265395	 0.466796	 -2.617021
N	 1.365077	 0.181639	 -2.282866
C	 1.482216	 -0.499322	 -1.001423
H	 0.981712	 -0.434727	 -2.974208
C	 0.103349	 -0.845420	 -0.449430
H	 1.984448	 0.175069	 -0.314534
H	 2.090725	 -1.405767	 -1.051167
C	 -0.679275	 0.379305	 0.025956
H	 -0.452945	 -1.370369	 -1.220662
H	 0.216796	 -1.544345	 0.378803
C	 -0.791153	 1.473151	 -1.037697
H	 -0.200425	 0.791481	 0.912896
H	 -1.679091	 0.076261	 0.333169
C	 -2.115055	 2.234023	 -0.975523
H	 0.033362	 2.173024	 -0.921214
H	 -0.676491	 1.028719	 -2.024099
H	 -2.243718	 2.718807	 -0.011807
H	 -2.163946	 3.002377	 -1.740928
H	 -2.958889	 1.565841	 -1.123406

6 3 5 9 F

12 8 5 9 F

1 2 3 6 F

