%nprocshared=1
%mem=2GB
#HF/6-31G* nosymm scf=tight 

Mol

0 1
H	 0.520913	 -3.355335	 -0.750069
O	 0.895837	 -2.618051	 -0.278264
C	 0.102382	 -1.563045	 -0.462125
C	 0.624473	 -0.343591	 0.253101
O	 -0.886133	 -1.623171	 -1.118051
C	 -0.265902	 0.883932	 0.072916
H	 0.740303	 -0.614115	 1.297502
H	 1.628992	 -0.158063	 -0.118751
C	 -1.728698	 0.646073	 0.462102
H	 -0.209144	 1.219470	 -0.958188
H	 0.135059	 1.692851	 0.673903
C	 -2.680981	 1.798807	 0.131467
H	 -1.766868	 0.461721	 1.533232
H	 -2.087674	 -0.265605	 -0.013435
C	 -2.512586	 2.307233	 -1.300183
H	 -3.707350	 1.468856	 0.278922
H	 -2.523179	 2.625353	 0.819437
H	 -3.195970	 3.124041	 -1.510242
H	 -2.707105	 1.518740	 -2.021481
H	 -1.502531	 2.668823	 -1.471293

16 12 9 6 F

7 4 6 10 F

5 3 4 7 F

1 2 3 5 F

