%nprocshared=1
%mem=2GB
#HF/6-31G* nosymm scf=tight 

Mol

0 1
H	 -0.367348	 2.047014	 -0.308205
C	 0.352277	 1.337084	 0.083769
N	 -0.000016	 0.000074	 -0.335546
H	 1.328359	 1.600444	 -0.307950
H	 0.381933	 1.450534	 1.172486
C	 1.163593	 -0.775958	 -0.698945
C	 -0.815238	 -0.676922	 0.646923
H	 0.856363	 -1.745348	 -1.074771
H	 1.711216	 -0.270876	 -1.486640
H	 1.848585	 -0.938873	 0.139582
H	 -1.712089	 -0.099742	 0.841590
H	 -1.118176	 -1.646656	 0.268394
H	 -0.298077	 -0.831153	 1.599649
