%nprocshared=1
%mem=2GB
#HF/6-31G* nosymm scf=tight 

Mol

0 1
H	 -3.420663	 1.227371	 -1.044276
O	 -3.452007	 0.283848	 -0.965577
C	 -3.181085	 -0.079926	 0.364119
C	 -1.765924	 0.277073	 0.805136
H	 -3.327791	 -1.152017	 0.410903
H	 -3.905698	 0.375695	 1.036898
C	 -0.677594	 -0.417312	 -0.014550
H	 -1.637766	 1.358238	 0.744969
H	 -1.659588	 0.017670	 1.857098
C	 0.738335	 -0.034840	 0.421385
H	 -0.814977	 -0.178223	 -1.064632
H	 -0.802730	 -1.495410	 0.071702
C	 1.008596	 -0.343304	 1.896476
H	 1.455242	 -0.559860	 -0.205366
H	 0.897560	 1.027896	 0.242933
C	 0.200937	 0.502898	 2.887327
H	 2.070760	 -0.218451	 2.101204
H	 0.786892	 -1.392821	 2.078624
C	 0.259640	 0.014679	 4.335982
H	 -0.837525	 0.512510	 2.565157
H	 0.541980	 1.535206	 2.840071
H	 -0.064196	 -1.019948	 4.412243
H	 -0.389574	 0.610591	 4.970211
H	 1.262006	 0.078719	 4.746256

20 16 13 17 F

17 13 10 7 F

11 7 4 3 F

1 2 3 5 F

7 4 3 2 F

