%nprocshared=1
%mem=2GB
#HF/6-31G* nosymm scf=tight 

Mol

0 1
O	 1.060187	 1.552475	 -0.444908
C	 0.663840	 0.850015	 -1.318121
C	 -0.619514	 0.056142	 -1.292410
O	 1.317955	 0.669329	 -2.458499
C	 -1.412532	 0.227344	 -0.000452
H	 -1.205116	 0.357639	 -2.156658
H	 -0.360270	 -0.985692	 -1.460132
C	 -2.706999	 -0.587347	 -0.000541
H	 -1.639556	 1.279054	 0.144014
H	 -0.793280	 -0.065768	 0.841638
C	 -3.956778	 0.291888	 0.000910
H	 -2.726114	 -1.239230	 -0.871609
H	 -2.725217	 -1.240844	 0.869333
H	 -3.985213	 0.933254	 -0.875158
H	 -4.860123	 -0.309979	 0.000519
H	 -3.984618	 0.931166	 0.878514
C	 2.544087	 1.360708	 -2.612561
H	 2.387973	 2.428399	 -2.556412
H	 2.916153	 1.087964	 -3.587818
H	 3.246589	 1.063722	 -1.847187

1 2 3 6 F

9 5 3 6 F

1 2 4 17 F

