%nprocshared=1
%mem=2GB
#HF/6-31G* nosymm scf=tight 
prop=(read,field)

Mol

0 1
H	 -1.836404	 1.387522	 -0.000064
C	 -1.302011	 0.443323	 -0.000031
O	 -0.004157	 0.658514	 0.000451
O	 -1.830067	 -0.616432	 -0.000857
C	 0.850349	 -0.484730	 0.000380
C	 2.278507	 0.015954	 0.000150
H	 0.633729	 -1.081763	 -0.874803
H	 0.633979	 -1.082281	 0.875258
H	 2.474777	 0.618936	 -0.879011
H	 2.963474	 -0.825505	 -0.000348
H	 2.475190	 0.618446	 0.879472

@grid.dat /N
