%nprocshared=1
%mem=2GB
#HF/6-31G* nosymm scf=tight 

Mol

0 1
H	 -2.273092	 1.173159	 0.000295
O	 -1.438904	 1.618192	 0.000114
C	 -0.409536	 0.736003	 0.000030
C	 0.856465	 1.257803	 0.214889
C	 -0.597734	 -0.629220	 -0.204152
H	 0.956878	 2.316326	 0.367983
C	 1.954539	 0.419020	 0.228544
C	 0.524137	 -1.448998	 -0.185215
C	 -1.979826	 -1.196568	 -0.438555
H	 2.934089	 0.830124	 0.395782
C	 1.793924	 -0.942587	 0.028034
H	 0.395555	 -2.506083	 -0.341365
H	 -2.445602	 -0.778390	 -1.328568
H	 -1.934550	 -2.269336	 -0.576740
H	 -2.644268	 -1.009706	 0.402633
H	 2.643488	 -1.600884	 0.037343
