%nprocshared=1
%mem=2GB
#HF/6-31G* nosymm scf=tight 

Mol

0 1
H	 -3.956800	 -1.097199	 -0.915124
C	 -2.890225	 -0.961983	 -0.945428
C	 -2.286743	 -0.482055	 -2.098089
C	 -2.123594	 -1.268073	 0.167909
H	 -2.882460	 -0.245054	 -2.960827
C	 -0.915288	 -0.308459	 -2.136292
H	 -2.593156	 -1.639995	 1.060540
C	 -0.750583	 -1.095097	 0.131956
H	 -0.431269	 0.061845	 -3.019623
C	 -0.142731	 -0.614278	 -1.021774
H	 -0.153453	 -1.330684	 0.991175
C	 1.330405	 -0.409474	 -1.114414
O	 1.970282	 -0.730723	 0.000018
O	 1.885641	 0.000249	 -2.085341
C	 3.377318	 -0.566646	 -0.000065
H	 3.695437	 -0.028981	 -0.881264
H	 3.789299	 -1.563704	 0.000236
H	 3.695516	 -0.028316	 0.880770

10 12 13 15 F

13 12 10 6 F

