%nprocshared=8
%mem=2GB
#B3LYP/6-31G* nosymm scf=tight
# opt=ModRedundant  EmpiricalDispersion=GD3

Mol

1 1
C	 1.050132	 -0.431737	 -0.729783
C	 1.271123	 0.283957	 0.461858
C	 2.265505	 -0.133130	 1.341041
C	 3.046042	 -1.252308	 1.035379
C	 2.831959	 -1.962572	 -0.149915
C	 1.834307	 -1.560682	 -1.032465
C	 -0.000000	 -0.000000	 -1.658508
H	 0.639205	 1.127967	 0.723708
H	 2.425327	 0.407347	 2.268336
H	 3.823258	 -1.571842	 1.722740
H	 3.448807	 -2.822358	 -0.390332
H	 1.700186	 -2.089752	 -1.971791
N	 -0.712589	 -0.905950	 -2.322235
N	 -0.237735	 1.296654	 -1.835239
H	 -1.009733	 1.643622	 -2.392372
H	 0.404547	 1.982511	 -1.460596
H	 -1.377189	 -1.485970	 -1.827091
H	 -0.673431	 -1.006470	 -3.329771

1 7 13 17 F
