%nprocshared=1
%mem=2GB
#HF/6-31G* nosymm scf=tight 

Mol

0 1
H	 -3.269016	 -0.876744	 0.468090
C	 -2.809304	 0.000122	 0.025886
N	 -1.391456	 0.000019	 0.300661
H	 -3.037557	 -0.000063	 -1.044252
H	 -3.269223	 0.876956	 0.468000
C	 -0.599941	 0.232608	 -0.891478
C	 -0.961678	 -1.209020	 0.975438
H	 -0.746765	 -0.559251	 -1.632362
H	 -0.914943	 1.167963	 -1.342530
C	 0.877294	 0.316589	 -0.540347
H	 -1.540527	 -1.325063	 1.885945
H	 -1.132445	 -2.096313	 0.358137
C	 0.515557	 -1.125039	 1.326569
H	 1.456143	 0.432633	 -1.450854
H	 1.048061	 1.203881	 0.076954
N	 1.307072	 -0.892450	 0.134429
H	 0.830559	 -2.060394	 1.777620
H	 0.662380	 -0.333181	 2.067452
C	 2.724920	 -0.892554	 0.409204
H	 3.278243	 -0.778491	 -0.516321
H	 3.012614	 -1.837887	 0.855753
H	 3.029122	 -0.089847	 1.087745
