%nprocshared=1
%mem=2GB
#HF/6-31G* nosymm scf=tight 

Mol

0 1
H	 -1.428552	 -1.690074	 1.451382
N	 -0.640156	 -1.077097	 1.372830
C	 -0.563778	 -0.502042	 0.037919
H	 0.175080	 -1.627616	 1.565378
C	 0.575259	 0.508231	 -0.048326
H	 -1.504883	 0.002733	 -0.158851
H	 -0.441111	 -1.252395	 -0.747363
C	 1.954651	 -0.143624	 0.035137
H	 0.475158	 1.060484	 -0.977307
H	 0.469181	 1.234488	 0.755973
H	 2.103292	 -0.853109	 -0.774172
H	 2.742821	 0.599562	 -0.030094
H	 2.083613	 -0.679371	 0.971560

1 2 3 6 F

