%nprocshared=1
%mem=2GB
#HF/6-31G* nosymm scf=tight 

Mol

0 1
H	 2.342664	 -0.099657	 0.068119
O	 1.585390	 -0.676940	 0.071564
C	 0.489431	 0.077273	 0.000046
C	 -0.764129	 -0.759190	 0.000191
O	 0.538627	 1.262628	 -0.055440
C	 -2.038368	 0.075731	 -0.000248
H	 -0.717284	 -1.412404	 -0.866059
H	 -0.717458	 -1.411724	 0.866967
H	 -2.086483	 0.712501	 -0.875098
H	 -2.908485	 -0.571682	 -0.000042
H	 -2.086576	 0.713280	 0.874068

1 2 3 5 F

