%nprocshared=1
%mem=2GB
#HF/6-31G* nosymm scf=tight 

Mol

0 1
O	 0.401677	 -0.394716	 -2.184405
C	 -0.079732	 -0.770588	 -1.165415
C	 -1.457863	 -1.355976	 -1.021738
O	 0.550821	 -0.724572	 0.000672
H	 -1.389400	 -2.357366	 -0.612818
H	 -1.942384	 -1.382013	 -1.986338
H	 -2.039070	 -0.757674	 -0.329774
C	 1.863949	 -0.193559	 -0.000319
H	 2.028859	 0.409284	 -0.881648
H	 2.526261	 -1.045082	 -0.000003
H	 2.029520	 0.410555	 0.880008

8 4 2 1 F

