%nprocshared=1
%mem=2GB
#HF/6-31G* nosymm scf=tight 

Mol

0 1
H	 -2.798360	 -0.862255	 -0.071053
N	 -1.863561	 -0.715187	 0.256814
C	 -1.344686	 0.554728	 -0.219830
H	 -1.300452	 -1.461917	 -0.101532
C	 0.081427	 0.741154	 0.254071
H	 -1.362155	 0.656231	 -1.305829
H	 -1.952773	 1.354456	 0.191809
O	 0.481787	 -0.427600	 0.910433
H	 0.737336	 0.937804	 -0.593720
H	 0.133667	 1.590900	 0.931152
C	 1.752340	 -0.362530	 1.475263
H	 1.950029	 -1.314612	 1.948715
H	 2.514850	 -0.180783	 0.719930
H	 1.814512	 0.423903	 2.224575

6 3 2 4 F

5 8 11 13 F

11 8 5 3 F

