%nprocshared=1
%mem=2GB
#HF/6-31G* nosymm scf=tight 

Mol

0 1
H	 2.723261	 2.168421	 -0.915253
N	 2.013778	 1.469948	 -1.026220
C	 1.842612	 0.708493	 0.202769
H	 2.312144	 0.870325	 -1.772048
C	 0.696393	 -0.287546	 0.061902
H	 1.610802	 1.411902	 0.996708
H	 2.747980	 0.178329	 0.508764
C	 -0.679275	 0.379305	 0.025956
H	 0.855865	 -0.868327	 -0.842032
H	 0.733546	 -0.992500	 0.891960
C	 -0.791153	 1.473151	 -1.037697
H	 -0.898194	 0.807647	 1.002914
H	 -1.444828	 -0.373860	 -0.154370
C	 -2.115055	 2.234023	 -0.975523
H	 0.033362	 2.173024	 -0.921214
H	 -0.676491	 1.028719	 -2.024099
H	 -2.243718	 2.718807	 -0.011807
H	 -2.163946	 3.002377	 -1.740928
H	 -2.958889	 1.565841	 -1.123406

6 3 5 9 F

12 8 5 9 F

1 2 3 6 F

