%nprocshared=1
%mem=2GB
#HF/6-31G* nosymm scf=tight 

Mol

0 1
O	 1.070411	 1.536134	 0.435341
C	 0.694775	 0.800578	 1.290266
C	 -0.588867	 0.007166	 1.264632
O	 1.375417	 0.577496	 2.407376
C	 -1.412532	 0.227344	 -0.000452
H	 -0.325658	 -1.040123	 1.385712
H	 -1.153629	 0.274486	 2.153642
C	 -2.706999	 -0.587347	 -0.000541
H	 -0.813764	 -0.032940	 -0.867767
H	 -1.642525	 1.283704	 -0.098992
C	 -3.956778	 0.291888	 0.000910
H	 -2.726114	 -1.239230	 -0.871609
H	 -2.725217	 -1.240844	 0.869333
H	 -3.985213	 0.933254	 -0.875158
H	 -4.860123	 -0.309979	 0.000519
H	 -3.984618	 0.931166	 0.878514
C	 2.604959	 1.263424	 2.558604
H	 3.289451	 0.995564	 1.766638
H	 2.999470	 0.954804	 3.514147
H	 2.447842	 2.332376	 2.545863

1 2 3 6 F

9 5 3 6 F

1 2 4 17 F

