%nprocshared=1
%mem=2GB
#HF/6-31G* nosymm scf=tight 

Mol

0 1
O	 -0.682937	 1.318834	 -0.186099
C	 -0.860635	 0.152188	 -0.042321
C	 -2.173363	 -0.477127	 0.338347
O	 0.083258	 -0.765189	 -0.202595
H	 -2.477673	 -1.180929	 -0.427595
H	 -2.923125	 0.290956	 0.455536
H	 -2.058825	 -1.029004	 1.264191
C	 1.391937	 -0.334737	 -0.569838
C	 2.106955	 0.327053	 0.593532
H	 1.322002	 0.330475	 -1.417035
H	 1.899694	 -1.239197	 -0.872548
H	 3.124302	 0.574590	 0.306375
H	 1.604480	 1.240464	 0.886053
H	 2.146835	 -0.341361	 1.446789

8 4 2 1 F

