%nprocshared=1
%mem=2GB
#HF/6-31G* nosymm scf=tight 

Mol

0 1
O	 -0.806752	 -1.114546	 1.082146
C	 -0.561929	 -0.074560	 0.531515
C	 -1.597472	 1.034011	 0.503089
N	 0.623947	 0.147590	 -0.102813
H	 -1.868528	 1.298769	 -0.513038
H	 -2.472791	 0.671041	 1.019920
H	 -1.237628	 1.928840	 0.999450
C	 1.712855	 0.741041	 0.648167
C	 0.783484	 0.161229	 -1.540383
H	 2.624993	 0.689001	 0.063947
H	 1.847862	 0.202571	 1.569993
H	 1.511813	 1.785347	 0.877138
H	 1.779150	 -0.185961	 -1.789676
H	 0.078413	 -0.495711	 -2.024366
H	 0.664004	 1.161385	 -1.952967

2 4 8 10 F

