%nprocshared=1
%mem=2GB
#HF/6-31G* nosymm scf=tight 

Mol

0 1
H	 -2.646374	 -0.642757	 1.268656
C	 -2.083525	 -0.384536	 0.393091
O	 -0.807605	 -0.127164	 0.768327
F	 -2.118945	 -1.383102	 -0.486752
F	 -2.621877	 0.670592	 -0.209486
C	 0.084052	 0.273579	 -0.209957
C	 1.307561	 -0.626011	 -0.091963
Cl	 0.535856	 1.972610	 0.005409
H	 -0.320260	 0.166468	 -1.201336
F	 1.958820	 -0.372091	 1.023172
F	 2.115674	 -0.378050	 -1.103352
F	 0.990804	 -1.897653	 -0.115753

10 7 6 9 F

6 3 2 4 F

