%nprocshared=1
%mem=2GB
#HF/6-31G* nosymm scf=tight 

Mol

0 1
H	 0.620607	 1.555243	 2.735295
O	 1.502728	 1.298563	 2.961233
C	 1.571459	 -0.099019	 3.088101
C	 1.501277	 -0.828175	 1.750890
H	 2.520025	 -0.304743	 3.567240
H	 0.788246	 -0.460207	 3.753608
C	 0.175450	 -0.641591	 1.009112
H	 2.320783	 -0.482461	 1.126184
H	 1.667230	 -1.888539	 1.933799
C	 0.115918	 -1.429151	 -0.302766
H	 0.026061	 0.415017	 0.805081
H	 -0.646632	 -0.956222	 1.652175
C	 0.579824	 -2.886769	 -0.200376
H	 -0.900581	 -1.401477	 -0.691108
H	 0.735251	 -0.921750	 -1.039428
C	 0.727785	 -3.417141	 1.228361
H	 -0.136855	 -3.511425	 -0.729518
H	 1.526011	 -3.000648	 -0.727253
C	 1.089510	 -4.903113	 1.278129
H	 -0.203924	 -3.256926	 1.769064
H	 1.489685	 -2.852392	 1.760217
C	 1.244105	 -5.433542	 2.703053
H	 0.324002	 -5.477389	 0.760738
H	 2.015148	 -5.066637	 0.730097
H	 0.323796	 -5.314109	 3.267847
H	 1.498359	 -6.488998	 2.704892
H	 2.028698	 -4.903778	 3.236090

14 10 7 4 F

10 7 4 8 F

8 4 3 2 F

10 13 16 20 F

20 16 19 22 F

4 3 2 1 F

