%nprocshared=1
%mem=2GB
#HF/6-31G* nosymm scf=tight 

Mol

0 1
H	 1.977260	 1.199629	 -2.458942
C	 1.793313	 0.808663	 -1.462174
C	 0.311496	 0.495713	 -1.279412
H	 2.109791	 1.549941	 -0.736838
H	 2.417626	 -0.069187	 -1.335107
N	 -0.000257	 -0.000071	 0.054619
H	 -0.246850	 1.408778	 -1.443544
H	 -0.021865	 -0.206424	 -2.049192
C	 -1.363055	 0.315058	 0.462241
C	 0.316347	 -1.413429	 0.212222
C	 -2.412078	 -0.285320	 -0.468531
H	 -1.482241	 1.391144	 0.451970
H	 -1.549931	 -0.001174	 1.492681
C	 0.664409	 -1.784418	 1.650436
H	 1.172419	 -1.642809	 -0.409614
H	 -0.500484	 -2.043859	 -0.151278
H	 -2.262839	 0.075384	 -1.480151
H	 -2.369300	 -1.368867	 -0.491760
H	 -3.410332	 -0.003975	 -0.144961
H	 1.512679	 -1.201175	 1.990875
H	 -0.159238	 -1.603468	 2.332648
H	 0.919939	 -2.838200	 1.718083
