%nprocshared=1
%mem=2GB
#HF/6-31G* nosymm scf=tight 

Mol

0 1
H	 2.734244	 -0.013684	 0.499261
N	 1.756080	 0.197118	 0.510204
C	 1.033574	 -0.787026	 1.295161
C	 1.239460	 0.279362	 -0.843698
H	 1.439490	 -0.801762	 2.301035
H	 1.118592	 -1.794966	 0.882281
C	 -0.437577	 -0.402674	 1.344344
H	 1.794475	 1.036881	 -1.386738
H	 1.336948	 -0.663990	 -1.386121
C	 -0.231819	 0.663054	 -0.793189
H	 -0.542514	 0.537942	 1.893280
H	 -0.993827	 -1.163368	 1.882374
N	 -0.975995	 -0.298722	 0.000000
H	 -0.639477	 0.671991	 -1.798814
H	 -0.322970	 1.675069	 -0.387461
C	 -2.393863	 -0.024976	 0.000000
H	 -2.854032	 -0.467193	 -0.876721
H	 -2.854032	 -0.467193	 0.876721
H	 -2.623281	 1.044943	 0.000000
