%nprocshared=1
%mem=2GB
#HF/6-31G* nosymm scf=tight 

Mol

0 1
O	 -0.183992	 1.059677	 1.087924
C	 -0.392074	 0.005054	 0.582110
C	 -1.733199	 -0.672246	 0.509906
O	 0.550821	 -0.724572	 0.000672
H	 -2.001678	 -0.843119	 -0.526147
H	 -2.477468	 -0.053266	 0.988256
H	 -1.682159	 -1.637788	 0.999502
C	 1.863949	 -0.193559	 -0.000319
H	 2.028859	 0.409284	 -0.881648
H	 2.526261	 -1.045082	 -0.000003
H	 2.029520	 0.410555	 0.880008

8 4 2 1 F

