%nprocshared=1
%mem=2GB
#HF/6-31G* nosymm scf=tight 

Mol

0 1
O	 -4.111378	 5.111191	 0.395981
C	 -3.589812	 4.457530	 1.246542
C	 -2.652680	 3.307590	 0.923494
C	 -3.832052	 4.736315	 2.715812
C	 -2.933125	 2.035105	 1.717450
H	 -2.717326	 3.115698	 -0.146734
H	 -1.633034	 3.650735	 1.093720
C	 -1.970234	 0.900009	 1.365086
H	 -3.956204	 1.721029	 1.536352
H	 -2.870479	 2.256545	 2.778198
C	 -2.259874	 0.272531	 0.000494
H	 -0.947422	 1.273829	 1.377850
H	 -2.021110	 0.128757	 2.132320
C	 -2.299309	 1.292585	 -1.138781
H	 -3.210635	 -0.255973	 0.042417
H	 -1.503664	 -0.479692	 -0.217000
C	 -3.566352	 2.147124	 -1.131721
H	 -1.427462	 1.940154	 -1.072741
H	 -2.220829	 0.772174	 -2.091079
H	 -3.656394	 2.706940	 -0.205088
H	 -3.564796	 2.860504	 -1.950126
H	 -4.455333	 1.530813	 -1.231810
H	 -2.895958	 4.962385	 3.218045
H	 -4.509521	 5.572175	 2.821681
H	 -4.255750	 3.862504	 3.202196

9 5 8 12 F

15 11 8 12 F

15 11 14 18 F

9 5 3 6 F

