%nprocshared=1
%mem=2GB
#HF/6-31G* nosymm scf=tight 

Mol

0 1
H	 -0.821032	 -1.655889	 0.000000
O	 -1.037828	 -0.728600	 0.000000
C	 0.100509	 -0.036935	 0.000000
C	 0.112967	 1.019156	 1.067904
O	 0.978323	 -0.257695	 -0.768069
H	 -0.714226	 1.702466	 0.914425
H	 1.049014	 1.555712	 1.035113
H	 -0.018073	 0.556742	 2.039355
