%nprocshared=1
%mem=2GB
#HF/6-31G* nosymm scf=tight 
prop=(read,field)

Mol

0 1
H	 2.854433	 -0.412297	 0.000205
O	 2.016374	 -0.864452	 0.000222
C	 1.050802	 0.053862	 0.000068
C	 -0.317825	 -0.576376	 0.000164
O	 1.285589	 1.218281	 -0.000078
C	 -1.454050	 0.441901	 -0.000474
H	 -0.373732	 -1.230137	 -0.866135
H	 -0.373964	 -1.229201	 0.867154
C	 -2.825813	 -0.230754	 0.000056
H	 -1.357295	 1.085224	 -0.868380
H	 -1.357194	 1.086477	 0.866496
H	 -2.959421	 -0.858027	 -0.876869
H	 -3.619064	 0.509429	 -0.000080
H	 -2.959061	 -0.857292	 0.877556

@grid.dat /N
