%nprocshared=1
%mem=2GB
#HF/6-31G* nosymm scf=tight 

Mol

0 1
H	 -3.161837	 0.500524	 -0.000234
C	 -2.367097	 -0.232926	 -0.000000
O	 -1.158440	 0.455814	 -0.000122
H	 -2.468853	 -0.861886	 -0.882833
H	 -2.468942	 -0.861421	 0.883154
C	 -1.058687	 1.440634	 0.983775
C	 -2.177979	 2.447697	 0.784597
H	 -0.088592	 1.935662	 0.922425
H	 -1.127055	 0.989610	 1.974638
C	 -1.943600	 3.350119	 -0.426015
H	 -3.112390	 1.906264	 0.673299
H	 -2.267773	 3.045503	 1.686409
H	 -1.875019	 2.772522	 -1.343676
H	 -2.756604	 4.058599	 -0.544020
H	 -1.023913	 3.919430	 -0.323715

6 3 2 4 F

11 7 6 8 F

