%nprocshared=1
%mem=2GB
#HF/6-31G* nosymm scf=tight 

Mol

0 1
H	 -2.798360	 -0.862255	 -0.071053
N	 -1.863561	 -0.715187	 0.256814
C	 -1.344686	 0.554728	 -0.219830
H	 -1.300452	 -1.461917	 -0.101532
C	 0.081427	 0.741154	 0.254071
H	 -1.362155	 0.656231	 -1.305829
H	 -1.952773	 1.354456	 0.191809
O	 0.160499	 1.958651	 0.938569
H	 0.369557	 -0.077948	 0.912623
H	 0.753484	 0.744850	 -0.601242
C	 1.443196	 2.299079	 1.358532
H	 1.379154	 3.249147	 1.871335
H	 1.847755	 1.556487	 2.044003
H	 2.124262	 2.398087	 0.515825

6 3 2 4 F

5 8 11 13 F

11 8 5 3 F

