%nprocshared=1
%mem=2GB
#HF/6-31G* nosymm scf=tight 

Mol

0 1
H	 2.332609	 0.878551	 -1.051851
C	 2.357710	 0.000000	 -0.417167
C	 1.175432	 0.000000	 0.532082
H	 3.291263	 0.000000	 0.136880
H	 2.332609	 -0.878551	 -1.051851
O	 0.000000	 0.000000	 -0.221444
H	 1.206604	 0.877321	 1.177902
H	 1.206604	 -0.877321	 1.177902
C	 -1.175432	 0.000000	 0.532082
C	 -1.703584	 -1.419454	 0.603209
H	 -1.914036	 0.657809	 0.074372
H	 -0.978769	 0.382919	 1.533303
H	 -1.909749	 -1.796158	 -0.392229
H	 -2.620117	 -1.456388	 1.183806
H	 -0.973171	 -2.071433	 1.068748
