%nprocshared=1
%mem=2GB
#HF/6-31G* nosymm scf=tight 

Mol

0 1
H	 -3.457960	 0.166880	 1.449720
O	 -3.367910	 -0.300316	 2.267454
C	 -3.043259	 -1.643282	 2.012310
C	 -1.609705	 -1.833855	 1.529264
H	 -3.184960	 -2.163733	 2.950780
H	 -3.740919	 -2.074362	 1.295219
C	 -1.314720	 -1.174099	 0.179978
H	 -0.935821	 -1.437562	 2.284379
H	 -1.414703	 -2.902721	 1.459510
C	 0.153959	 -0.767939	 0.028861
H	 -1.947081	 -0.298168	 0.064960
H	 -1.580057	 -1.860384	 -0.624354
C	 1.165295	 -1.845508	 0.436763
H	 0.339352	 -0.472283	 -1.002189
H	 0.332042	 0.118177	 0.634490
C	 1.179194	 -2.184117	 1.929957
H	 0.942781	 -2.752080	 -0.122191
H	 2.162951	 -1.537615	 0.127371
C	 2.126909	 -3.335998	 2.271195
H	 0.170621	 -2.443613	 2.248631
H	 1.466327	 -1.309934	 2.509320
C	 2.147509	 -3.671795	 3.761993
H	 1.837294	 -4.219637	 1.706577
H	 3.133422	 -3.082551	 1.944729
H	 1.160736	 -3.961200	 4.112349
H	 2.826425	 -4.492692	 3.971364
H	 2.469252	 -2.818245	 4.352161

14 10 7 4 F

14 10 13 16 F

8 4 3 2 F

10 13 16 20 F

20 16 19 22 F

4 3 2 1 F

