%nprocshared=1
%mem=2GB
#HF/6-31G* nosymm scf=tight 

Mol

0 1
H	 3.298851	 -0.435647	 0.020682
C	 2.239168	 -0.252690	 0.016235
C	 1.599665	 0.070262	 -1.174394
C	 1.520508	 -0.340375	 1.196836
H	 2.164389	 0.136402	 -2.086665
C	 0.238900	 0.305838	 -1.183661
H	 2.018616	 -0.590427	 2.115860
C	 0.155410	 -0.103812	 1.186216
H	 -0.274098	 0.556730	 -2.093076
C	 -0.488460	 0.219100	 0.000000
H	 -0.408682	 -0.170459	 2.100713
C	 -1.949954	 0.470334	 0.000000
O	 -2.781584	 -0.381627	 0.000000
H	 -2.238022	 1.526388	 0.000000
