%nprocshared=1
%mem=2GB
#HF/6-31G* nosymm scf=tight 

Mol

0 1
H	 2.788833	 -2.520600	 0.976987
C	 2.100714	 -2.833858	 0.198455
C	 0.867239	 -1.932768	 0.159229
H	 2.637054	 -2.806384	 -0.745902
H	 1.829526	 -3.867475	 0.394261
C	 -0.127859	 -2.340084	 -0.922563
H	 1.161347	 -0.901958	 -0.012000
H	 0.372835	 -1.957010	 1.128955
N	 -1.268658	 -1.446027	 -0.948991
H	 0.357980	 -2.290819	 -1.893386
H	 -0.420739	 -3.385141	 -0.776087
C	 -1.217365	 -0.386708	 0.039277
H	 -1.355622	 -1.044301	 -1.863373
C	 -2.452633	 0.504241	 -0.042481
H	 -1.172857	 -0.848333	 1.022069
H	 -0.315698	 0.227728	 -0.054795
C	 -3.758029	 -0.289423	 -0.010781
H	 -2.394220	 1.093569	 -0.952170
H	 -2.440793	 1.210787	 0.785871
H	 -3.816659	 -0.981993	 -0.845726
H	 -4.617837	 0.370165	 -0.069296
H	 -3.847478	 -0.867502	 0.904682

15 12 14 18 F

