%nprocshared=1
%mem=2GB
#HF/6-31G* nosymm scf=tight 

Mol

0 1
H	 2.559087	 -0.920909	 1.101117
N	 1.577084	 -0.729992	 1.125253
C	 0.830282	 -1.839973	 0.562277
C	 1.284363	 0.511940	 0.433422
H	 1.065142	 -2.740700	 1.119323
H	 1.075360	 -2.018885	 -0.487279
C	 -0.658279	 -1.545800	 0.672172
H	 1.848059	 1.314417	 0.897154
H	 1.556943	 0.475476	 -0.623939
C	 -0.204480	 0.804657	 0.543397
H	 -0.938988	 -1.515597	 1.729238
H	 -1.222069	 -2.345546	 0.203031
N	 -0.975995	 -0.298722	 0.000000
H	 -0.440550	 1.702330	 -0.018741
H	 -0.454785	 0.992332	 1.591836
C	 -2.393863	 -0.024976	 0.000000
H	 -2.854032	 -0.467193	 -0.876721
H	 -2.854032	 -0.467193	 0.876721
H	 -2.623281	 1.044943	 0.000000
