%nprocshared=1
%mem=2GB
#HF/6-31G* nosymm scf=tight 

Mol

0 1
O	 -0.682937	 1.318834	 -0.186099
C	 -0.860635	 0.152188	 -0.042321
C	 -2.173363	 -0.477127	 0.338347
O	 0.083258	 -0.765189	 -0.202595
H	 -2.477673	 -1.180929	 -0.427595
H	 -2.923125	 0.290956	 0.455536
H	 -2.058825	 -1.029004	 1.264191
C	 1.326451	 -0.366206	 -0.775379
C	 1.162938	 0.050019	 -2.225437
H	 2.037702	 -1.172090	 -0.676314
H	 1.650007	 0.466489	 -0.167573
H	 2.108558	 0.419370	 -2.610288
H	 0.852286	 -0.789152	 -2.835073
H	 0.426476	 0.841297	 -2.314432

10 8 4 2 F

