%nprocshared=1
%mem=2GB
#HF/6-31G* nosymm scf=tight 

Mol

0 1
O	 0.913078	 0.878585	 -1.796001
C	 0.140502	 1.681556	 -1.381988
C	 -0.736928	 1.510365	 -0.165969
O	 -0.054281	 2.863688	 -1.952602
C	 0.009703	 0.968223	 1.048924
H	 -1.187764	 2.475719	 0.047552
H	 -1.558027	 0.856670	 -0.447457
C	 1.251084	 1.795930	 1.385435
H	 0.293943	 -0.063057	 0.864061
H	 -0.661271	 0.947633	 1.902080
C	 2.397490	 1.565659	 0.401702
H	 0.991625	 2.852651	 1.395351
H	 1.586450	 1.555245	 2.392248
H	 2.104202	 1.830155	 -0.610068
H	 3.264730	 2.164097	 0.662552
H	 2.703681	 0.523625	 0.394409
C	 1.065166	 3.726192	 -2.042424
H	 1.444631	 3.960080	 -1.058153
H	 0.709774	 4.621320	 -2.528624
H	 1.850932	 3.269393	 -2.626729

9 5 8 12 F

1 2 3 6 F

9 5 3 6 F

