%nprocshared=1
%mem=2GB
#HF/6-31G* nosymm scf=tight 

Mol

0 1
H	 -2.798360	 -0.862255	 -0.071053
N	 -1.863561	 -0.715187	 0.256814
C	 -1.344686	 0.554728	 -0.219830
H	 -1.300452	 -1.461917	 -0.101532
C	 -2.427405	 1.611619	 -0.157879
H	 -0.480812	 0.914222	 0.340962
H	 -1.035631	 0.437073	 -1.253959
O	 -3.438057	 1.257406	 -1.057992
H	 -2.831786	 1.677760	 0.851942
H	 -2.008722	 2.580031	 -0.422678
C	 -4.464005	 2.191895	 -1.166304
H	 -5.179729	 1.811766	 -1.882501
H	 -4.967298	 2.342683	 -0.212920
H	 -4.091447	 3.152628	 -1.515589

8 5 3 6 F

5 8 11 13 F

11 8 5 3 F

