%nprocshared=1
%mem=2GB
#HF/6-31G* nosymm scf=tight 
prop=(read,field)

Mol

0 1
H	 4.617843	 0.370136	 -0.069266
C	 3.758033	 -0.289435	 -0.010590
C	 2.452646	 0.504247	 -0.042158
H	 3.816549	 -0.982070	 -0.845491
H	 3.847587	 -0.867445	 0.904905
C	 1.217350	 -0.386699	 0.039432
H	 2.394262	 1.093733	 -0.951821
H	 2.440824	 1.210663	 0.786231
N	 0.000003	 0.397899	 -0.023257
H	 1.215349	 -1.074589	 -0.801857
H	 1.269580	 -1.003413	 0.942933
C	 -1.217365	 -0.386683	 0.039280
H	 -0.000031	 1.072140	 0.718659
C	 -2.452633	 0.504266	 -0.042478
H	 -1.215291	 -1.074532	 -0.802039
H	 -1.269739	 -1.003452	 0.942738
C	 -3.758029	 -0.289398	 -0.010778
H	 -2.394220	 1.093594	 -0.952167
H	 -2.440793	 1.210812	 0.785874
H	 -3.816659	 -0.981968	 -0.845723
H	 -4.617837	 0.370190	 -0.069293
H	 -3.847478	 -0.867477	 0.904685

@grid.dat /N
