%nprocshared=1
%mem=2GB
#HF/6-31G* nosymm scf=tight 

Mol

0 1
O	 -2.324811	 1.361668	 -0.277141
C	 -2.105949	 0.203097	 -0.092081
C	 -0.889235	 -0.467034	 -0.705952
C	 -3.002726	 -0.644460	 0.782455
C	 0.146901	 -0.817358	 0.374251
H	 -0.452634	 0.228971	 -1.413949
H	 -1.178824	 -1.363219	 -1.247263
C	 1.401976	 -1.465463	 -0.215124
H	 0.401012	 0.092224	 0.906673
H	 -0.297458	 -1.494171	 1.102409
C	 2.439682	 -1.899055	 0.826613
H	 1.865143	 -0.775005	 -0.917599
H	 1.107072	 -2.337915	 -0.794527
C	 3.088069	 -0.745709	 1.594328
H	 3.218453	 -2.462616	 0.319064
H	 1.976681	 -2.588247	 1.529985
H	 3.550093	 -0.035263	 0.914236
H	 3.861398	 -1.114673	 2.260832
H	 2.368975	 -0.204220	 2.199707
H	 -3.496582	 -1.399307	 0.176174
H	 -3.747939	 -0.023774	 1.260148
H	 -2.421318	 -1.168775	 1.535358

6 3 5 8 F

3 5 8 12 F

12 8 11 15 F

