%nprocshared=1
%mem=2GB
#HF/6-31G* nosymm scf=tight 

Mol

0 1
H	 -2.404122	 -1.680596	 -0.778221
C	 -1.646366	 -0.998001	 -0.447654
C	 -1.965885	 0.335855	 -0.027819
C	 -0.359700	 -1.367794	 -0.413577
H	 -2.990502	 0.662889	 -0.043747
C	 -1.000833	 1.171614	 0.381624
H	 -0.037746	 -2.347722	 -0.711051
N	 0.640212	 -0.532897	 -0.000111
H	 -1.202044	 2.175091	 0.702411
C	 0.399195	 0.768957	 0.418655
C	 2.010177	 -1.032049	 0.000042
O	 1.295793	 1.489883	 0.780017
H	 2.187698	 -1.635381	 -0.882279
H	 2.677579	 -0.189247	 -0.001871
H	 2.188882	 -1.632203	 0.884288
