%nprocshared=1
%mem=2GB
#HF/6-31G* nosymm scf=tight 

Mol

0 1
O	 -0.389695	 0.092980	 2.453461
C	 -0.833093	 0.610524	 1.479901
C	 -1.689737	 1.847648	 1.474314
O	 -0.632575	 0.154573	 0.251549
H	 -2.647636	 1.627754	 1.017121
H	 -1.833848	 2.193421	 2.486988
H	 -1.213112	 2.620317	 0.882227
C	 0.160891	 -1.019931	 0.106212
C	 1.589627	 -0.672828	 0.480843
H	 0.089836	 -1.367806	 -0.916050
H	 -0.238459	 -1.792301	 0.749618
C	 1.744951	 0.704655	 1.128002
H	 2.186040	 -0.718551	 -0.428076
H	 1.974499	 -1.440823	 1.146662
C	 0.734187	 0.942964	 2.248969
H	 2.753807	 0.802924	 1.523795
H	 1.634167	 1.472273	 0.369156
H	 0.864099	 1.925830	 2.690705
H	 0.843433	 0.207386	 3.040972
H	 -0.284792	 0.879587	 1.877830

16 12 9 8 F

2 4 8 10 F

1 2 4 8 F

