%nprocshared=1
%mem=2GB
#HF/6-31G* nosymm scf=tight 
prop=(read,field)

Mol

0 1
H	 -3.135692	 -1.215163	 0.001352
O	 -2.310399	 -0.871886	 -0.309820
C	 -2.026607	 0.340657	 0.341584
C	 -0.673487	 0.843177	 -0.132180
H	 -2.792446	 1.080604	 0.115960
H	 -2.013757	 0.200309	 1.421765
C	 0.486382	 -0.083159	 0.235812
H	 -0.715817	 0.970855	 -1.210745
H	 -0.508303	 1.829765	 0.297063
C	 1.840175	 0.433387	 -0.254330
H	 0.299984	 -1.068411	 -0.178974
H	 0.519278	 -0.203718	 1.318043
C	 2.999989	 -0.489383	 0.118496
H	 1.808976	 0.553483	 -1.335219
H	 2.021629	 1.424407	 0.157249
H	 2.864728	 -1.479196	 -0.307960
H	 3.946372	 -0.099320	 -0.243657
H	 3.079818	 -0.603090	 1.196090

@grid.dat /N
