%nprocshared=1
%mem=2GB
#HF/6-31G* nosymm scf=tight 

Mol

0 1
H	 2.142390	 -0.844349	 -0.488223
C	 1.393809	 -1.311292	 -1.139677
C	 0.097423	 -0.554476	 -1.272167
O	 1.633566	 -2.341394	 -1.681465
C	 -0.558097	 -0.297372	 0.091132
H	 -0.558698	 -1.116301	 -1.926643
H	 0.316899	 0.398519	 -1.752232
C	 -1.850991	 0.512573	 -0.019058
H	 -0.768353	 -1.249396	 0.573021
H	 0.141478	 0.228391	 0.738455
C	 -3.096943	 -0.368295	 -0.099594
H	 -1.800724	 1.150330	 -0.898172
H	 -1.931651	 1.177355	 0.838044
H	 -3.060452	 -1.020287	 -0.967456
H	 -3.996858	 0.233488	 -0.175704
H	 -3.191959	 -0.995686	 0.782074

6 3 5 9 F

4 2 3 6 F

