%nprocshared=1
%mem=2GB
#HF/6-31G* nosymm scf=tight 

Mol

0 1
H	 1.429806	 -2.019245	 -0.794410
C	 0.504294	 -1.491152	 -0.957505
O	 0.464886	 -0.454746	 -0.000158
H	 -0.325992	 -2.174754	 -0.825833
H	 0.492649	 -1.091727	 -1.964673
C	 -0.590998	 0.343045	 0.000118
O	 -1.699443	 -0.054298	 0.000227
H	 -0.340329	 1.404368	 0.000207
