%nprocshared=1
%mem=2GB
#HF/6-31G* nosymm scf=tight 

Mol

0 1
H	 -3.489899	 1.228218	 -1.029938
O	 -3.452007	 0.283848	 -0.965577
C	 -3.181085	 -0.079926	 0.364119
C	 -1.765924	 0.277073	 0.805136
H	 -3.327791	 -1.152017	 0.410903
H	 -3.905698	 0.375695	 1.036898
C	 -1.289990	 1.635525	 0.288790
H	 -1.719195	 0.261066	 1.894412
H	 -1.092522	 -0.506368	 0.461668
C	 -1.098245	 1.667304	 -1.228907
H	 -0.358784	 1.897883	 0.781470
H	 -2.012692	 2.397089	 0.577091
C	 -2.288091	 1.076095	 -1.989711
H	 -0.930109	 2.694783	 -1.542652
H	 -0.195976	 1.116370	 -1.491559
C	 -2.491979	 -0.430307	 -1.791368
H	 -2.175464	 1.285627	 -3.052306
H	 -3.193177	 1.591006	 -1.674273
C	 -3.824156	 -0.966579	 -2.318739
H	 -2.424779	 -0.649722	 -0.728527
H	 -1.673236	 -0.969300	 -2.263965
H	 -4.661793	 -0.437052	 -1.872527
H	 -3.936574	 -2.020143	 -2.081668
H	 -3.905085	 -0.865881	 -3.395992

20 16 13 17 F

17 13 10 7 F

13 10 7 11 F

11 7 4 3 F

1 2 3 5 F

