%nprocshared=1
%mem=2GB
#HF/6-31G* nosymm scf=tight 

Mol

0 1
O	 3.225979	 0.970355	 -0.599647
C	 2.701189	 0.057885	 -0.047330
C	 1.245376	 -0.013843	 0.345420
O	 3.347903	 -1.046386	 0.304773
C	 0.455112	 1.231400	 -0.050772
H	 0.838542	 -0.913825	 -0.103701
H	 1.208210	 -0.175333	 1.419774
C	 -0.998893	 1.219485	 0.433193
H	 0.482531	 1.345121	 -1.130325
H	 0.957290	 2.103070	 0.354729
C	 -1.883438	 0.145884	 -0.207175
H	 -1.431207	 2.195402	 0.224832
H	 -1.019646	 1.105716	 1.516076
C	 -1.641530	 -0.005455	 -1.710364
H	 -1.700196	 -0.808424	 0.284289
H	 -2.933160	 0.377891	 -0.042162
C	 -2.102756	 1.205454	 -2.523447
H	 -2.155517	 -0.895376	 -2.069659
H	 -0.580762	 -0.174248	 -1.889189
C	 -1.622740	 2.534281	 -1.940776
H	 -1.744342	 1.109784	 -3.546202
H	 -3.189277	 1.208472	 -2.580383
H	 -1.965470	 3.373132	 -2.538665
H	 -0.537859	 2.576628	 -1.902886
H	 -1.993467	 2.675692	 -0.929421
C	 4.728119	 -1.109107	 -0.004993
H	 4.882018	 -1.033965	 -1.071845
H	 5.068212	 -2.067527	 0.355250
H	 5.265056	 -0.311663	 0.488280

21 17 14 11 F

17 14 11 15 F

6 3 5 9 F

11 8 5 9 F

2 4 26 27 F

1 2 4 26 F

6 3 2 1 F

