%nprocshared=1
%mem=2GB
#HF/6-31G* nosymm scf=tight 

Mol

0 1
H	 -3.650283	 0.221984	 0.000000
C	 -2.577024	 0.154109	 0.000000
C	 -1.960329	 -1.089307	 0.000000
C	 -1.811733	 1.307557	 0.000000
H	 -2.554473	 -1.985285	 0.000000
C	 -0.581547	 -1.175855	 0.000000
H	 -2.287118	 2.271701	 0.000000
C	 -0.428719	 1.219221	 0.000000
H	 -0.090826	 -2.129898	 0.000000
C	 0.198341	 -0.021559	 0.000000
H	 0.149947	 2.124040	 0.000000
C	 1.691355	 -0.173192	 0.000000
C	 2.447288	 -0.018995	 1.303200
O	 2.277754	 -0.412469	 -1.014030
H	 2.290035	 0.967181	 1.728065
H	 3.500512	 -0.160585	 1.107849
H	 2.115540	 -0.750936	 2.032574
