%nprocshared=1
%mem=2GB
#HF/6-31G* nosymm scf=tight 
prop=(read,field)

Mol

0 1
H	 -2.647445	 -0.647949	 1.268822
C	 -2.084596	 -0.389728	 0.393257
O	 -0.808676	 -0.132356	 0.768493
F	 -2.120016	 -1.388294	 -0.486586
F	 -2.622948	 0.665400	 -0.209320
C	 0.082981	 0.268387	 -0.209791
C	 1.351962	 -0.551995	 -0.017905
Cl	 0.432773	 1.999427	 -0.074291
H	 -0.289907	 0.087465	 -1.202764
F	 2.247730	 -0.232422	 -0.927637
F	 1.058027	 -1.828618	 -0.163761
F	 1.877255	 -0.380069	 1.170574

@grid.dat /N
