%nprocshared=1
%mem=2GB
#HF/6-31G* nosymm scf=tight 

Mol

0 1
H	 -3.135461	 -1.215070	 0.001379
O	 -2.310168	 -0.871793	 -0.309793
C	 -2.026376	 0.340750	 0.341611
C	 -0.673256	 0.843270	 -0.132153
H	 -2.792215	 1.080697	 0.115987
H	 -2.013526	 0.200402	 1.421792
C	 0.486613	 -0.083066	 0.235839
H	 -0.715586	 0.970948	 -1.210718
H	 -0.508072	 1.829858	 0.297090
C	 0.924458	 0.060753	 1.694407
H	 1.327074	 0.121966	 -0.419219
H	 0.193466	 -1.115685	 0.049819
C	 1.700476	 1.350567	 1.958695
H	 0.047403	 0.030254	 2.337495
H	 1.538186	 -0.792950	 1.975428
H	 1.100241	 2.223854	 1.719994
H	 1.995852	 1.426582	 3.000770
H	 2.602742	 1.396018	 1.355072

14 10 7 11 F

2 3 4 8 F

1 2 3 4 F

