%nprocshared=1
%mem=2GB
#HF/6-31G* nosymm scf=tight 

Mol

0 1
O	 0.947552	 -1.736916	 1.930278
C	 0.212142	 -1.488257	 1.030991
C	 -1.203387	 -1.981664	 0.906917
O	 0.550821	 -0.724572	 0.000672
H	 -1.881377	 -1.138040	 0.849376
H	 -1.448469	 -2.596410	 1.760096
H	 -1.312543	 -2.553681	 -0.007119
C	 1.863949	 -0.193559	 -0.000319
H	 2.028859	 0.409284	 -0.881648
H	 2.526261	 -1.045082	 -0.000003
H	 2.029520	 0.410555	 0.880008

8 4 2 1 F

