%nprocshared=1
%mem=2GB
#HF/6-31G* nosymm scf=tight 

Mol

0 1
H	 -2.698709	 -0.000305	 0.034435
C	 -1.693833	 0.000034	 0.434417
O	 -0.828952	 -0.000968	 -0.659236
H	 -1.574200	 0.882896	 1.055746
H	 -1.574147	 -0.881698	 1.057355
C	 0.559449	 -0.000018	 -0.420814
C	 1.334392	 -0.791454	 -1.472484
C	 1.118866	 1.407675	 -0.224824
H	 0.647759	 -0.526351	 0.522163
H	 0.879679	 -1.764921	 -1.621299
H	 2.358405	 -0.940435	 -1.144708
H	 1.369477	 -0.279394	 -2.428898
H	 0.514585	 1.956565	 0.489335
H	 2.133339	 1.353879	 0.157819
H	 1.149759	 1.970480	 -1.152260

6 3 2 1 F

