%nprocshared=1
%mem=2GB
#HF/6-31G* nosymm scf=tight 

Mol

0 1
H	 2.762751	 1.921259	 -1.173584
N	 2.000309	 1.273642	 -1.226681
C	 1.865559	 0.531981	 0.018834
H	 2.201831	 0.651008	 -1.985988
C	 0.645745	 -0.382037	 -0.029944
H	 1.740934	 1.253718	 0.820347
H	 2.751575	 -0.058782	 0.264545
C	 -0.679275	 0.379305	 0.025956
H	 0.698998	 -0.976915	 -0.937203
H	 0.693479	 -1.083846	 0.802235
C	 -1.704436	 -0.263147	 0.962264
H	 -1.101380	 0.442857	 -0.975861
H	 -0.497412	 1.404495	 0.344953
C	 -3.028338	 0.498647	 1.011889
H	 -1.888708	 -1.287072	 0.644718
H	 -1.286397	 -0.325619	 1.964759
H	 -3.488796	 0.548899	 0.029153
H	 -3.733869	 0.018722	 1.683083
H	 -2.881906	 1.517515	 1.359535

6 3 5 9 F

12 8 11 15 F

1 2 3 6 F

