%nprocshared=1
%mem=2GB
#HF/6-31G* nosymm scf=tight 

Mol

0 1
H	 -3.219028	 1.152641	 0.907165
O	 -3.116026	 2.030069	 1.245664
C	 -4.363211	 2.527478	 1.659390
C	 -4.867936	 1.887947	 2.948180
H	 -4.221102	 3.589945	 1.809864
H	 -5.102240	 2.409249	 0.867786
C	 -3.821720	 1.826647	 4.063770
H	 -5.736079	 2.444162	 3.292157
H	 -5.208390	 0.880226	 2.715895
C	 -2.677354	 0.859179	 3.748730
H	 -4.304567	 1.528131	 4.990114
H	 -3.411543	 2.822766	 4.230634
C	 -2.087810	 0.996018	 2.340165
H	 -1.885700	 0.989425	 4.484371
H	 -3.040864	 -0.158800	 3.872336
C	 -3.034785	 0.600176	 1.203932
H	 -1.786054	 2.031258	 2.195124
H	 -1.176362	 0.403917	 2.272953
C	 -4.465221	 1.099239	 1.418936
H	 -3.044660	 -0.484477	 1.106250
H	 -2.666261	 0.987989	 0.257311
C	 -5.411106	 0.710962	 0.283063
H	 -4.847259	 0.703375	 2.357459
H	 -4.456195	 2.181939	 1.526468
H	 -5.467273	 -0.368187	 0.171231
H	 -6.416738	 1.077069	 0.465559
H	 -5.076338	 1.123259	 -0.664726

14 10 7 4 F

14 10 13 16 F

10 7 4 8 F

8 4 3 2 F

20 16 19 22 F

4 3 2 1 F

