%nprocshared=1
%mem=2GB
#HF/6-31G* nosymm scf=tight 
prop=(read,field)

Mol

0 1
H	 -0.335753	 -1.839602	 0.000000
N	 0.209073	 -1.000441	 0.000000
C	 -0.103149	 -0.021793	 1.047370
C	 -0.103149	 -0.021793	 -1.047370
H	 0.582143	 -0.026517	 1.887338
H	 -1.121242	 -0.089647	 1.427646
C	 0.051396	 1.097241	 0.000000
H	 -1.121242	 -0.089647	 -1.427646
H	 0.582143	 -0.026517	 -1.887338
H	 -0.688366	 1.887120	 0.000000
H	 1.042837	 1.531763	 -0.000000

@grid.dat /N
