%nprocshared=1
%mem=2GB
#HF/6-31G* nosymm scf=tight 

Mol

0 1
H	 -2.240291	 0.559484	 0.604969
C	 -2.008299	 -0.205926	 -0.129530
O	 -0.774054	 0.001095	 -0.743181
H	 -2.752932	 -0.160639	 -0.912984
H	 -2.076115	 -1.178578	 0.348530
C	 0.284941	 -0.911313	 -0.513891
C	 1.344700	 -0.497907	 -1.532723
C	 0.841122	 -0.766739	 0.906302
C	 -0.160353	 -2.353050	 -0.778888
H	 1.642792	 0.530848	 -1.364685
H	 0.945411	 -0.572680	 -2.537885
H	 2.223837	 -1.130046	 -1.460754
H	 1.086779	 0.270269	 1.109517
H	 1.743051	 -1.359543	 1.019039
H	 0.135876	 -1.103949	 1.658281
H	 -0.617816	 -2.430546	 -1.759588
H	 0.693422	 -3.022061	 -0.746834
H	 -0.874028	 -2.703143	 -0.040827

2 3 6 7 F

