%nprocshared=1
%mem=2GB
#HF/6-31G* nosymm scf=tight 

Mol

0 1
O	 -2.821601	 1.309235	 -0.001213
C	 -2.668563	 0.129746	 -0.000350
C	 -3.801572	 -0.864014	 -0.000442
O	 -1.481751	 -0.454642	 0.000584
H	 -4.417280	 -0.689587	 -0.874708
H	 -3.443784	 -1.883046	 -0.000565
H	 -4.417179	 -0.689832	 0.873954
C	 -0.334255	 0.388708	 0.000906
C	 0.891947	 -0.504646	 0.000751
H	 -0.365390	 1.025305	 -0.873475
H	 -0.365484	 1.024911	 0.875569
C	 0.623693	 -1.850957	 0.675997
H	 1.702349	 0.011330	 0.508152
H	 1.212869	 -0.660307	 -1.025523
C	 1.848973	 -2.766872	 0.686741
H	 0.292143	 -1.684938	 1.699520
H	 -0.195998	 -2.355887	 0.167829
C	 1.581364	 -4.111031	 1.362380
H	 2.668946	 -2.263984	 1.194501
H	 2.180243	 -2.935702	 -0.335427
H	 1.280378	 -3.976739	 2.397459
H	 2.467759	 -4.737512	 1.354506
H	 0.788263	 -4.653643	 0.855851

2 4 8 10 F

16 12 9 13 F

19 15 12 16 F

1 2 4 8 F

