%nprocshared=1
%mem=2GB
#HF/6-31G* nosymm scf=tight 

Mol

0 1
H	 -1.070890	 -1.366565	 0.180696
O	 -1.422729	 -0.573567	 -0.196946
C	 -0.731407	 0.539437	 0.309156
C	 0.680193	 0.672443	 -0.251532
H	 -1.319765	 1.404033	 0.030086
H	 -0.700012	 0.506517	 1.397677
C	 1.242798	 2.091528	 -0.165637
H	 1.331229	 -0.011974	 0.284537
H	 0.665808	 0.350290	 -1.290546
H	 1.339135	 2.418246	 0.865464
H	 2.229817	 2.147157	 -0.612477
H	 0.605352	 2.801599	 -0.686910

1 2 3 4 F

