%nprocshared=1
%mem=2GB
#HF/6-31G* nosymm scf=tight 

Mol

0 1
H	 1.148083	 -1.049780	 0.784252
O	 1.319262	 -0.618148	 -0.041729
C	 0.709265	 0.639550	 -0.033818
C	 -0.615352	 0.687536	 -0.749127
H	 1.406749	 1.316940	 -0.513257
H	 0.577604	 0.999392	 0.986086
C	 -1.124194	 -0.287005	 -1.475841
H	 -1.160337	 1.612044	 -0.636165
H	 -0.601077	 -1.214130	 -1.624895
H	 -2.078896	 -0.184264	 -1.959541

5 3 4 7 F

3 4 7 9 F

