%nprocshared=1
%mem=2GB
#HF/6-31G* nosymm scf=tight 

Mol

0 1
H	 -2.284541	 -0.030379	 -2.316863
C	 -1.817513	 -0.065991	 -1.350430
C	 -2.572646	 0.012265	 -0.192588
C	 -0.448521	 -0.191235	 -1.249821
H	 -3.641788	 0.110129	 -0.250027
C	 -1.958098	 -0.034885	 1.044681
H	 0.163319	 -0.254340	 -2.125290
C	 0.154804	 -0.237046	 -0.000077
H	 -2.561588	 0.027169	 1.931273
C	 -0.577903	 -0.160547	 1.189173
N	 1.611208	 -0.370857	 -0.000034
C	 -0.012459	 -0.202085	 2.591842
O	 2.274126	 0.622059	 -0.008063
O	 2.068510	 -1.474748	 0.007823
H	 0.679041	 0.610729	 2.765879
H	 -0.824730	 -0.125506	 3.303689
H	 0.525099	 -1.121857	 2.776706
