%nprocshared=1
%mem=2GB
#HF/6-31G* nosymm scf=tight 

Mol

0 1
O	 1.848445	 1.251844	 -1.109304
C	 0.788116	 1.716284	 -1.379704
C	 -0.547806	 1.059875	 -1.130088
O	 0.640172	 2.906476	 -1.947763
C	 -0.682279	 0.472651	 0.271599
H	 -1.315996	 1.804432	 -1.320445
H	 -0.681618	 0.296219	 -1.891431
C	 -0.366165	 1.496699	 1.362681
H	 -0.020975	 -0.382914	 0.365802
H	 -1.689789	 0.091059	 0.404336
C	 1.128351	 1.799576	 1.483290
H	 -0.903742	 2.421892	 1.160134
H	 -0.736337	 1.133914	 2.320408
C	 1.758093	 2.232099	 0.159810
H	 1.644339	 0.918442	 1.858123
H	 1.277906	 2.579477	 2.226610
H	 1.655205	 1.457820	 -0.595253
H	 2.817054	 2.439762	 0.277836
H	 1.285500	 3.131872	 -0.224086
C	 1.792514	 3.724689	 -2.034891
H	 2.180449	 3.940881	 -1.049855
H	 1.472688	 4.634305	 -2.518819
H	 2.560106	 3.239076	 -2.620117

15 11 8 12 F

9 5 8 12 F

1 2 3 6 F

9 5 3 6 F

