%nprocshared=24
%mem=2GB
#HF/6-31G* nosymm scf=tight 

Mol

0 1
H	 -0.609424	 0.059285	 -0.022398
C	 -1.331806	 -0.651877	 0.328590
C	 -1.224516	 -1.150904	 1.538115
H	 -2.131514	 -0.938736	 -0.329240
O	 -0.058873	 -1.105489	 2.235090
H	 -2.051454	 -1.604977	 2.054080
C	 1.122280	 -0.938099	 1.529193
C	 1.575007	 -2.228300	 0.883472
H	 1.928985	 -0.573371	 2.155427
H	 0.937284	 -0.221590	 0.743120
F	 0.516023	 -2.913006	 0.476399
F	 2.338925	 -2.006426	 -0.172989
F	 2.253173	 -2.987911	 1.717973

11 8 7 9 F

3 5 7 9 F

6 3 2 1 F

