%nprocshared=1
%mem=2GB
#HF/6-31G* nosymm scf=tight 

Mol

0 1
H	 -3.135461	 -1.215070	 0.001379
O	 -2.310168	 -0.871793	 -0.309793
C	 -2.026376	 0.340750	 0.341611
C	 -0.673256	 0.843270	 -0.132153
H	 -2.792215	 1.080697	 0.115987
H	 -2.013526	 0.200402	 1.421792
C	 0.486613	 -0.083066	 0.235839
H	 -0.715586	 0.970948	 -1.210718
H	 -0.508072	 1.829858	 0.297090
C	 1.409848	 -0.380756	 -0.946884
H	 0.088301	 -1.012092	 0.630517
H	 1.067112	 0.370858	 1.038220
C	 0.790283	 -1.344969	 -1.957877
H	 1.664254	 0.551101	 -1.447521
H	 2.347008	 -0.795715	 -0.580847
H	 -0.131282	 -0.942214	 -2.368236
H	 1.465975	 -1.535753	 -2.786120
H	 0.555477	 -2.299950	 -1.495939

14 10 7 11 F

2 3 4 8 F

1 2 3 4 F

