%nprocshared=1
%mem=2GB
#HF/6-31G* nosymm scf=tight 

Mol

0 1
H	 5.268524	 0.192471	 1.070992
C	 4.673736	 -0.214914	 0.259335
C	 3.185378	 -0.203514	 0.605509
H	 4.871837	 0.380453	 -0.627026
H	 5.025590	 -1.224632	 0.065769
C	 2.317601	 -0.778379	 -0.516234
H	 2.874655	 0.814325	 0.817774
H	 3.023650	 -0.778480	 1.515976
C	 3.039035	 -1.807399	 -1.386818
H	 1.430774	 -1.235736	 -0.091962
H	 1.979981	 0.033898	 -1.155969
C	 3.305964	 -3.136341	 -0.695511
H	 2.437261	 -2.031050	 -2.266374
H	 3.976358	 -1.406643	 -1.766287
C	 4.339203	 -4.057757	 -1.320110
O	 2.715501	 -3.457863	 0.291596
C	 3.970161	 -4.532194	 -2.733574
H	 4.448404	 -4.907199	 -0.656606
H	 5.293484	 -3.535328	 -1.353259
C	 4.982211	 -5.533925	 -3.292950
H	 2.984259	 -4.991677	 -2.711484
H	 3.902248	 -3.681889	 -3.407251
C	 4.625860	 -6.013607	 -4.699301
H	 5.047522	 -6.388807	 -2.624390
H	 5.969848	 -5.078048	 -3.305065
H	 3.656424	 -6.503243	 -4.712588
H	 4.586945	 -5.183955	 -5.399497
H	 5.359603	 -6.723129	 -5.068187

12 15 17 21 F

16 12 15 17 F

