%nprocshared=1
%mem=2GB
#HF/6-31G* nosymm scf=tight 
prop=(read,field)

Mol

0 1
H	 -3.161975	 0.500564	 -0.000234
C	 -2.367235	 -0.232886	 -0.000000
O	 -1.158578	 0.455854	 -0.000122
H	 -2.468991	 -0.861846	 -0.882833
H	 -2.469080	 -0.861381	 0.883154
C	 -0.029914	 -0.365116	 0.000148
C	 1.212079	 0.509021	 0.000007
H	 -0.036910	 -1.013196	 -0.877259
H	 -0.037007	 -1.012738	 0.877897
C	 2.502591	 -0.309184	 -0.000038
H	 1.177965	 1.155415	 -0.871585
H	 1.177955	 1.155852	 0.871296
H	 2.567974	 -0.946374	 -0.877613
H	 3.372228	 0.339335	 0.000320
H	 2.567680	 -0.946566	 0.877408

@grid.dat /N
