%nprocshared=1
%mem=2GB
#HF/6-31G* nosymm scf=tight 

Mol

0 1
O	 -0.682937	 1.318834	 -0.186099
C	 -0.860635	 0.152188	 -0.042321
C	 -2.173363	 -0.477127	 0.338347
O	 0.083258	 -0.765189	 -0.202595
H	 -2.477673	 -1.180929	 -0.427595
H	 -2.923125	 0.290956	 0.455536
H	 -2.058825	 -1.029004	 1.264191
C	 1.135813	 -0.830065	 0.756944
C	 2.010190	 0.409192	 0.708407
H	 1.714651	 -1.725493	 0.588733
H	 0.630379	 -0.910389	 1.708566
H	 2.753591	 0.365215	 1.498439
H	 2.526510	 0.480198	 -0.240666
H	 1.413046	 1.303204	 0.851855

10 8 4 2 F

