%nprocshared=1
%mem=2GB
#HF/6-31G* nosymm scf=tight 

Mol

0 1
H	 2.762751	 1.921259	 -1.173584
N	 2.000309	 1.273642	 -1.226681
C	 1.865559	 0.531981	 0.018834
H	 2.201831	 0.651008	 -1.985988
C	 0.645745	 -0.382037	 -0.029944
H	 1.740934	 1.253718	 0.820347
H	 2.751575	 -0.058782	 0.264545
C	 -0.679275	 0.379305	 0.025956
H	 0.698998	 -0.976915	 -0.937203
H	 0.693479	 -1.083846	 0.802235
C	 -1.374018	 0.480448	 -1.333263
H	 -0.503153	 1.382071	 0.412337
H	 -1.349031	 -0.106216	 0.734153
C	 -2.695613	 1.245511	 -1.273457
H	 -0.707244	 0.966394	 -2.042124
H	 -1.553676	 -0.520187	 -1.720701
H	 -2.544454	 2.262217	 -0.921636
H	 -3.163328	 1.300574	 -2.251625
H	 -3.397377	 0.764133	 -0.598036

6 3 5 9 F

12 8 11 15 F

1 2 3 6 F

