%nprocshared=1
%mem=2GB
#HF/6-31G* nosymm scf=tight 

Mol

0 1
H	 -3.161837	 0.500524	 -0.000234
C	 -2.367097	 -0.232926	 -0.000000
O	 -1.158440	 0.455814	 -0.000122
H	 -2.468853	 -0.861886	 -0.882833
H	 -2.468942	 -0.861421	 0.883154
C	 -1.058687	 1.440634	 0.983775
C	 -0.864267	 2.788136	 0.310647
H	 -0.220509	 1.224533	 1.647596
H	 -1.960324	 1.450636	 1.597662
C	 0.536521	 2.950787	 -0.277758
H	 -1.612859	 2.894969	 -0.468365
H	 -1.057717	 3.568546	 1.040193
H	 0.741444	 2.193006	 -1.028889
H	 0.647488	 3.920606	 -0.751025
H	 1.300708	 2.870657	 0.490358

6 3 2 4 F

11 7 6 8 F

