%nprocshared=1
%mem=2GB
#HF/6-31G* nosymm scf=tight 

Mol

0 1
H	 1.369396	 0.901746	 -2.491928
C	 0.638365	 0.696340	 -1.718411
C	 1.322923	 0.120767	 -0.479465
H	 0.125575	 1.625881	 -1.491756
H	 -0.089257	 0.001558	 -2.126379
C	 0.306652	 -0.176050	 0.621399
H	 2.057335	 0.823105	 -0.098954
H	 1.845471	 -0.795063	 -0.729386
N	 -1.068537	 -0.011044	 0.085269
H	 0.372515	 -1.192590	 0.973735
H	 0.391664	 0.520566	 1.441230
O	 -1.656956	 -0.997225	 -0.235017
O	 -1.478635	 1.104830	 -0.018026

12 9 6 3 F

