%nprocshared=1
%mem=2GB
#HF/6-31G* nosymm scf=tight 

Mol

0 1
H	 0.520913	 -3.355335	 -0.750069
O	 0.895837	 -2.618051	 -0.278264
C	 0.102382	 -1.563045	 -0.462125
C	 0.624473	 -0.343591	 0.253101
O	 -0.886133	 -1.623171	 -1.118051
C	 -0.265902	 0.883932	 0.072916
H	 0.740303	 -0.614115	 1.297502
H	 1.628992	 -0.158063	 -0.118751
C	 -1.728698	 0.646073	 0.462102
H	 -0.209144	 1.219470	 -0.958188
H	 0.135059	 1.692851	 0.673903
C	 -2.175871	 -0.818167	 0.430558
H	 -2.355923	 1.214511	 -0.220707
H	 -1.912573	 1.057751	 1.453499
C	 -1.200383	 -1.745702	 1.154835
H	 -3.160035	 -0.901900	 0.887125
H	 -2.285246	 -1.155358	 -0.596926
H	 -1.537271	 -2.776933	 1.117649
H	 -1.098296	 -1.468028	 2.199969
H	 -0.212564	 -1.704081	 0.704592

16 12 9 6 F

7 4 6 10 F

5 3 4 7 F

1 2 3 5 F

