%nprocshared=1
%mem=2GB
#HF/6-31G* nosymm scf=tight 

Mol

0 1
H	 -1.070890	 -1.366565	 0.180696
O	 -1.422729	 -0.573567	 -0.196946
C	 -0.731407	 0.539437	 0.309156
C	 0.680193	 0.672443	 -0.251532
H	 -1.319765	 1.404033	 0.030086
H	 -0.700012	 0.506517	 1.397677
C	 1.508142	 1.765364	 0.425025
H	 1.184451	 -0.284097	 -0.149547
H	 0.605437	 0.881051	 -1.316631
H	 1.664185	 1.550229	 1.477908
H	 2.487994	 1.851563	 -0.032605
H	 1.022179	 2.734881	 0.346675

1 2 3 4 F

