%nprocshared=1
%mem=2GB
#HF/6-31G* nosymm scf=tight 

Mol

0 1
H	 -5.061691	 1.202149	 -3.763641
C	 -5.093791	 1.178276	 -2.667273
C	 -5.778607	 2.357167	 -2.023959
O	 -4.609716	 0.268896	 -2.075285
C	 -4.977539	 2.933611	 -0.848264
H	 -5.960835	 3.105105	 -2.786908
H	 -6.744607	 2.007388	 -1.661807
C	 -4.902224	 1.994114	 0.357958
H	 -3.972854	 3.158145	 -1.193918
H	 -5.413157	 3.884778	 -0.546145
C	 -6.253274	 1.803461	 1.050150
H	 -4.181031	 2.387808	 1.071212
H	 -4.518773	 1.024182	 0.046933
C	 -7.144331	 3.045428	 0.963640
H	 -6.759475	 0.950440	 0.605350
H	 -6.089580	 1.551128	 2.097010
C	 -8.476090	 2.930578	 1.714174
H	 -7.340708	 3.275648	 -0.082366
H	 -6.595566	 3.895780	 1.362978
C	 -9.441535	 1.892099	 1.140506
H	 -8.962502	 3.902772	 1.700334
H	 -8.281521	 2.704290	 2.760528
H	 -9.641833	 2.084110	 0.089658
H	 -9.050397	 0.883621	 1.223924
H	 -10.390864	 1.916855	 1.666962

6 3 5 8 F

6 3 2 4 F

3 5 8 12 F

8 11 14 18 F

20 17 14 18 F

