%nprocshared=1
%mem=2GB
#HF/6-31G* nosymm scf=tight 

Mol

0 1
H	 0.335535	 -1.381928	 1.133814
C	 -0.645966	 -1.083955	 0.779965
N	 -0.528168	 0.128977	 -0.000000
H	 -1.268046	 -0.899837	 1.648385
H	 -1.069744	 -1.926270	 0.226627
C	 0.248044	 -0.037491	 -1.209632
H	 -1.439111	 0.474560	 -0.227560
H	 0.998722	 0.743888	 -1.266824
H	 -0.398417	 0.061950	 -2.074060
H	 0.763621	 -0.999315	 -1.275517
