%nprocshared=1
%mem=2GB
#HF/6-31G* nosymm scf=tight 

Mol

0 1
O	 -0.806752	 -1.114546	 1.082146
C	 -0.561929	 -0.074560	 0.531515
C	 -1.597472	 1.034011	 0.503089
N	 0.623947	 0.147590	 -0.102813
H	 -1.868528	 1.298769	 -0.513038
H	 -2.472791	 0.671041	 1.019920
H	 -1.237628	 1.928840	 0.999450
C	 1.636284	 0.935190	 0.573010
C	 0.831347	 -0.041258	 -1.521815
H	 2.569273	 0.872008	 0.023869
H	 1.781388	 0.554084	 1.568823
H	 1.345956	 1.981701	 0.635834
H	 1.859233	 -0.338083	 -1.693237
H	 0.197226	 -0.819535	 -1.915653
H	 0.647856	 0.872341	 -2.084383

2 4 8 10 F

