%nprocshared=8
%mem=2GB
#B3LYP/6-31G* nosymm scf=tight
# opt=ModRedundant  EmpiricalDispersion=GD3

Mol

1 1
C	 -0.000000	 -0.000000	 -0.191639
C	 1.075252	 -0.576240	 0.510391
C	 1.071842	 -0.569054	 1.901670
C	 -0.000000	 0.000000	 2.596333
C	 -1.071842	 0.569054	 1.901670
C	 -1.075251	 0.576241	 0.510391
C	 -0.000000	 -0.000000	 -1.658508
H	 1.929769	 -0.980953	 -0.024627
H	 1.908398	 -0.997382	 2.444112
H	 -0.000000	 0.000000	 3.681982
H	 -1.908399	 0.997381	 2.444112
H	 -1.929769	 0.980953	 -0.024627
N	 -0.712589	 -0.905950	 -2.322235
N	 0.712590	 0.905950	 -2.322235
H	 0.673432	 1.006470	 -3.329771
H	 1.377190	 1.485970	 -1.827091
H	 -1.377189	 -1.485970	 -1.827091
H	 -0.673431	 -1.006470	 -3.329771

2 1 7 13 F
