%nprocshared=1
%mem=2GB
#HF/6-31G* nosymm scf=tight 

Mol

0 1
H	 -2.646374	 -0.642757	 1.268656
C	 -2.083525	 -0.384536	 0.393091
O	 -0.807605	 -0.127164	 0.768327
F	 -2.118945	 -1.383102	 -0.486752
F	 -2.621877	 0.670592	 -0.209486
C	 -0.436650	 -0.454322	 2.059856
C	 -0.847523	 -1.903373	 2.286998
Cl	 -1.229094	 0.610037	 3.233051
H	 0.625464	 -0.375825	 2.213242
F	 -2.158930	 -2.009325	 2.320560
F	 -0.374915	 -2.300880	 3.451501
F	 -0.383146	 -2.700990	 1.356334

10 7 6 9 F

9 6 3 2 F

