%nprocshared=1
%mem=2GB
#HF/6-31G* nosymm scf=tight 

Mol

0 1
H	 2.591676	 2.013956	 0.335017
O	 3.341076	 1.666752	 -0.126416
C	 3.569581	 0.339145	 0.272707
C	 2.539767	 -0.640285	 -0.279495
H	 4.553106	 0.084646	 -0.100901
H	 3.608576	 0.269204	 1.359154
C	 1.115811	 -0.397273	 0.226630
H	 2.556196	 -0.582511	 -1.364741
H	 2.852081	 -1.648031	 -0.010655
C	 0.115918	 -1.429151	 -0.302766
H	 0.797950	 0.599468	 -0.066350
H	 1.109961	 -0.420744	 1.316472
C	 -1.242902	 -1.432211	 0.407120
H	 -0.035225	 -1.267174	 -1.368489
H	 0.556727	 -2.419175	 -0.206638
C	 -2.081095	 -0.167701	 0.199935
H	 -1.812627	 -2.287957	 0.050847
H	 -1.091037	 -1.593686	 1.473281
C	 -3.468492	 -0.260894	 0.838590
H	 -2.189872	 0.020037	 -0.867320
H	 -1.563202	 0.695983	 0.609982
C	 -4.304880	 1.002510	 0.638758
H	 -3.999574	 -1.114370	 0.422635
H	 -3.361943	 -0.458127	 1.903312
H	 -4.457094	 1.209015	 -0.416898
H	 -5.282483	 0.904694	 1.100665
H	 -3.817674	 1.869121	 1.076912

14 10 13 16 F

10 7 4 8 F

8 4 3 2 F

10 13 16 20 F

20 16 19 22 F

4 3 2 1 F

