%nprocshared=1
%mem=2GB
#HF/6-31G* nosymm scf=tight 

Mol

0 1
H	 -8.021671	 3.710376	 5.315178
C	 -7.396682	 3.271679	 4.527425
C	 -8.145424	 2.474815	 3.489636
O	 -6.220483	 3.439742	 4.535264
C	 -7.475183	 1.127800	 3.185363
H	 -9.166303	 2.344300	 3.829459
H	 -8.170099	 3.075770	 2.581396
C	 -6.125454	 1.264043	 2.476160
H	 -7.339006	 0.592480	 4.120334
H	 -8.146673	 0.518133	 2.582731
C	 -6.253274	 1.803461	 1.050150
H	 -5.635144	 0.292973	 2.454584
H	 -5.471592	 1.918349	 3.049646
C	 -7.144331	 3.045428	 0.963640
H	 -5.260695	 2.030198	 0.669217
H	 -6.658706	 1.024962	 0.405209
C	 -8.476090	 2.930578	 1.714174
H	 -7.340708	 3.275648	 -0.082366
H	 -6.595566	 3.895780	 1.362978
C	 -9.441535	 1.892099	 1.140506
H	 -8.962502	 3.902772	 1.700334
H	 -8.281521	 2.704290	 2.760528
H	 -9.641833	 2.084110	 0.089658
H	 -9.050397	 0.883621	 1.223924
H	 -10.390864	 1.916855	 1.666962

6 3 5 8 F

6 3 2 4 F

3 5 8 12 F

12 8 11 14 F

20 17 14 18 F

