%nprocshared=1
%mem=2GB
#HF/6-31G* nosymm scf=tight 

Mol

0 1
H	 -1.070890	 -1.366565	 0.180696
O	 -1.422729	 -0.573567	 -0.196946
C	 -0.731407	 0.539437	 0.309156
C	 0.680193	 0.672443	 -0.251532
H	 -1.319765	 1.404033	 0.030086
H	 -0.700012	 0.506517	 1.397677
C	 0.903712	 1.956143	 -1.051444
H	 1.385563	 0.628121	 0.573171
H	 0.877373	 -0.189117	 -0.885862
H	 0.785825	 2.837478	 -0.428110
H	 1.906295	 1.988250	 -1.464678
H	 0.203891	 2.032327	 -1.880124

1 2 3 4 F

