%nprocshared=1
%mem=2GB
#HF/6-31G* nosymm scf=tight 

Mol

0 1
H	 -3.571158	 0.540474	 0.139285
O	 -3.106200	 -0.271124	 -0.011510
C	 -1.775819	 -0.076055	 -0.001477
C	 -0.905725	 -0.860500	 -0.752863
C	 -1.287158	 0.951040	 0.796241
H	 -1.292697	 -1.654550	 -1.368532
C	 0.450322	 -0.614504	 -0.703441
H	 -1.978302	 1.542144	 1.366493
C	 0.071626	 1.184763	 0.835151
H	 1.133106	 -1.211874	 -1.277945
C	 0.955376	 0.410187	 0.090406
H	 0.450826	 1.980576	 1.453173
C	 2.407166	 0.672174	 0.142173
O	 2.907538	 1.624895	 0.654726
H	 3.031250	 -0.089424	 -0.337049

7 11 13 14 F

