%nprocshared=1
%mem=2GB
#HF/6-31G* nosymm scf=tight 

Mol

0 1
H	 2.332609	 0.878551	 -1.051851
C	 2.357710	 0.000000	 -0.417167
C	 1.175432	 0.000000	 0.532082
H	 3.291263	 0.000000	 0.136880
H	 2.332609	 -0.878551	 -1.051851
O	 0.000000	 0.000000	 -0.221444
H	 1.206604	 0.877321	 1.177902
H	 1.206604	 -0.877321	 1.177902
C	 -1.175432	 0.000000	 0.532082
C	 -1.073339	 -1.084889	 1.586334
H	 -2.034859	 -0.177706	 -0.114101
H	 -1.320035	 0.973135	 1.000959
H	 -0.940758	 -2.054226	 1.119309
H	 -1.973474	 -1.113117	 2.192511
H	 -0.224932	 -0.901772	 2.235933
