%nprocshared=1
%mem=2GB
#HF/6-31G* nosymm scf=tight 

Mol

0 1
O	 1.066834	 -2.032293	 1.712165
C	 0.275803	 -1.645901	 0.914452
C	 -1.147444	 -2.120194	 0.804999
O	 0.550821	 -0.724572	 0.000672
H	 -1.823175	 -1.281819	 0.928282
H	 -1.339790	 -2.865528	 1.562212
H	 -1.318951	 -2.538157	 -0.180127
C	 -0.299261	 -0.669208	 -1.130953
H	 -0.095481	 0.216152	 -1.715733
H	 -1.305253	 -0.637965	 -0.742684
H	 -0.163498	 -1.543847	 -1.750565

2 4 8 9 F

