%nprocshared=1
%mem=2GB
#HF/6-31G* nosymm scf=tight 

Mol

0 1
H	 -0.345686	 3.975960	 -1.121866
O	 -0.606806	 3.183109	 -0.675892
C	 0.481122	 2.295631	 -0.612932
C	 0.031547	 1.023609	 0.088541
H	 1.303654	 2.740558	 -0.055823
H	 0.850222	 2.073003	 -1.611582
C	 -1.134819	 0.293262	 -0.585751
H	 -0.254443	 1.284304	 1.103693
H	 0.889729	 0.357931	 0.163489
C	 -1.917817	 -0.639439	 0.339494
H	 -0.758119	 -0.268455	 -1.433105
H	 -1.813832	 1.041889	 -0.986690
H	 -2.777680	 -1.057197	 -0.174994
H	 -1.310268	 -1.471279	 0.680599
H	 -2.283753	 -0.111424	 1.216626

2 3 4 8 F

1 2 3 4 F

