%nprocshared=1
%mem=2GB
#HF/6-31G* nosymm scf=tight 

Mol

0 1
H	 2.866480	 -0.465706	 0.876907
C	 2.405773	 -0.024801	 0.000000
N	 0.988830	 -0.304158	 0.000000
H	 2.866480	 -0.465706	 -0.876907
H	 2.629928	 1.045948	 0.000000
C	 0.316200	 0.246925	 1.161829
C	 0.704186	 -1.720999	 -0.132320
H	 0.701527	 -0.183230	 2.091877
H	 0.489301	 1.317921	 1.197153
C	 -1.176409	 -0.023577	 1.067298
H	 1.161387	 -2.091004	 -1.044629
H	 1.117784	 -2.294555	 0.703424
C	 -0.798712	 -1.939313	 -0.192531
H	 -1.682396	 0.301638	 1.966870
H	 -1.592429	 0.518123	 0.219679
O	 -1.429264	 -1.393886	 0.932132
H	 -1.032270	 -2.995904	 -0.201665
H	 -1.196962	 -1.487746	 -1.099424
