%nprocshared=1
%mem=2GB
#HF/6-31G* nosymm scf=tight 

Mol

0 1
O	 -0.239038	 1.192314	 -0.778609
C	 -0.421659	 0.076355	 -0.414385
C	 -1.758425	 -0.611499	 -0.364574
O	 0.550821	 -0.724572	 0.000672
H	 -1.736766	 -1.499070	 -0.986212
H	 -2.526299	 0.064317	 -0.710309
H	 -1.970020	 -0.926595	 0.650573
C	 1.863949	 -0.193559	 -0.000319
H	 2.028859	 0.409284	 -0.881648
H	 2.526261	 -1.045082	 -0.000003
H	 2.029520	 0.410555	 0.880008

8 4 2 1 F

