%nprocshared=1
%mem=2GB
#HF/6-31G* nosymm scf=tight 

Mol

0 1
H	 -0.367348	 2.047014	 -0.308205
C	 0.352277	 1.337084	 0.083769
N	 -0.000016	 0.000074	 -0.335546
H	 1.328359	 1.600444	 -0.307950
H	 0.381933	 1.450534	 1.172486
C	 0.415713	 -0.994654	 0.626720
C	 -1.404445	 -0.112909	 -0.656436
H	 0.199638	 -1.986748	 0.246704
H	 1.485443	 -0.925038	 0.788878
H	 -0.081939	 -0.886977	 1.596065
H	 -1.663386	 0.600144	 -1.430955
H	 -1.616804	 -1.106944	 -1.033578
H	 -2.056394	 0.069830	 0.204085
