%nprocshared=1
%mem=2GB
#HF/6-31G* nosymm scf=tight 

Mol

0 1
H	 -0.367348	 2.047014	 -0.308205
C	 0.352277	 1.337084	 0.083769
N	 -0.000016	 0.000074	 -0.335546
H	 1.328359	 1.600444	 -0.307950
H	 0.381933	 1.450534	 1.172486
C	 0.931953	 -0.985305	 0.163185
C	 -1.366009	 -0.329408	 0.001592
H	 0.677645	 -1.963532	 -0.228927
H	 1.935455	 -0.743399	 -0.168370
H	 0.942334	 -1.050259	 1.256142
H	 -2.039939	 0.391074	 -0.447959
H	 -1.615489	 -1.309134	 -0.389989
H	 -1.550488	 -0.338447	 1.080857
