%nprocshared=1
%mem=2GB
#HF/6-31G* nosymm scf=tight 

Mol

0 1
H	 2.484547	 1.242868	 -2.584905
O	 2.187045	 1.150846	 -1.691077
C	 0.917198	 1.734922	 -1.553472
C	 0.472345	 1.568687	 -0.111176
H	 0.951498	 2.792003	 -1.813683
H	 0.201548	 1.257741	 -2.221666
C	 0.198102	 0.111031	 0.262842
H	 -0.420223	 2.169015	 0.042636
H	 1.242152	 1.983030	 0.533954
C	 1.331804	 -0.827780	 -0.158768
H	 0.039544	 0.041268	 1.336232
H	 -0.728809	 -0.216497	 -0.206283
C	 2.723619	 -0.410569	 0.329459
H	 1.342964	 -0.912588	 -1.244120
H	 1.116806	 -1.824343	 0.220779
C	 3.243875	 0.895854	 -0.272975
H	 3.424222	 -1.207124	 0.091250
H	 2.714788	 -0.329854	 1.414619
H	 3.251977	 0.848779	 -1.358681
H	 2.637085	 1.747371	 0.016682
H	 4.259473	 1.094070	 0.055697

2 3 4 8 F

8 4 7 10 F

16 13 10 14 F

1 2 3 5 F

