%nprocshared=1
%mem=2GB
#HF/6-31G* nosymm scf=tight 

Mol

0 1
H	 -4.616311	 5.667760	 -1.659383
C	 -4.881073	 4.671782	 -1.283150
C	 -4.933853	 4.551134	 0.218605
O	 -5.100379	 3.785151	 -2.043110
C	 -4.210761	 3.299151	 0.734292
H	 -4.520621	 5.455855	 0.649220
H	 -5.985296	 4.498184	 0.498461
C	 -4.906070	 1.990772	 0.349599
H	 -3.198952	 3.299462	 0.339923
H	 -4.113371	 3.358530	 1.817227
C	 -6.253274	 1.803461	 1.050150
H	 -4.251816	 1.155658	 0.591224
H	 -5.054315	 1.954593	 -0.728016
C	 -7.144331	 3.045428	 0.963640
H	 -6.762297	 0.948855	 0.611656
H	 -6.083785	 1.555291	 2.097083
C	 -8.476090	 2.930578	 1.714174
H	 -7.340708	 3.275648	 -0.082366
H	 -6.595566	 3.895780	 1.362978
C	 -9.441535	 1.892099	 1.140506
H	 -8.962502	 3.902772	 1.700334
H	 -8.281521	 2.704290	 2.760528
H	 -9.641833	 2.084110	 0.089658
H	 -9.050397	 0.883621	 1.223924
H	 -10.390864	 1.916855	 1.666962

6 3 5 8 F

6 3 2 4 F

3 5 8 12 F

12 8 11 14 F

20 17 14 18 F

