%nprocshared=1
%mem=2GB
#HF/6-31G* nosymm scf=tight 

Mol

0 1
H	 -2.821512	 1.819417	 -1.336751
O	 -2.282904	 2.384625	 -0.799821
C	 -0.971845	 1.899767	 -0.800178
C	 -0.795902	 0.595680	 -0.067389
H	 -0.365902	 2.666101	 -0.330319
H	 -0.600023	 1.790231	 -1.818400
C	 -1.522220	 -0.487727	 -0.255690
H	 -0.003408	 0.588516	 0.664993
H	 -1.071454	 -1.449856	 -0.418625
H	 -2.596511	 -0.445958	 -0.267127

5 3 2 1 F

5 3 4 7 F

