%nprocshared=1
%mem=2GB
#HF/6-31G* nosymm scf=tight 

Mol

0 1
H	 -2.798360	 -0.862255	 -0.071053
N	 -1.863561	 -0.715187	 0.256814
C	 -1.344686	 0.554728	 -0.219830
H	 -1.300452	 -1.461917	 -0.101532
C	 0.081427	 0.741154	 0.254071
H	 -1.362155	 0.656231	 -1.305829
H	 -1.952773	 1.354456	 0.191809
O	 0.844676	 1.203573	 -0.823290
H	 0.115365	 1.459778	 1.072647
H	 0.473768	 -0.207033	 0.614965
C	 2.202708	 1.338218	 -0.549084
H	 2.684456	 1.699949	 -1.447286
H	 2.377660	 2.051060	 0.254800
H	 2.648039	 0.385887	 -0.268809

6 3 2 4 F

5 8 11 13 F

11 8 5 3 F

