%nprocshared=1
%mem=2GB
#HF/6-31G* nosymm scf=tight 

Mol

0 1
H	 -1.836216	 1.387520	 -0.000064
C	 -1.301823	 0.443321	 -0.000031
O	 -0.003969	 0.658512	 0.000451
O	 -1.829879	 -0.616434	 -0.000857
C	 0.572587	 1.194298	 -1.190223
C	 0.491382	 0.122819	 -2.255895
H	 1.595098	 1.479722	 -0.984500
H	 0.026892	 2.084163	 -1.472451
H	 1.036654	 -0.763623	 -1.952692
H	 0.921460	 0.491008	 -3.181478
H	 -0.539096	 -0.156374	 -2.443121

7 5 3 2 F

