%nprocshared=1
%mem=2GB
#HF/6-31G* nosymm scf=tight 

Mol

0 1
H	 1.019101	 -2.430189	 1.035063
C	 1.036701	 -1.505316	 1.624217
C	 -0.212849	 -0.667209	 1.539724
O	 1.995615	 -1.226133	 2.268165
C	 -0.558097	 -0.297372	 0.091132
H	 -0.071033	 0.216807	 2.150367
H	 -1.030234	 -1.245638	 1.968830
C	 -1.850991	 0.512573	 -0.019058
H	 0.262595	 0.272238	 -0.338731
H	 -0.649869	 -1.203899	 -0.504389
C	 -3.096943	 -0.368295	 -0.099594
H	 -1.800724	 1.150330	 -0.898172
H	 -1.931651	 1.177355	 0.838044
H	 -3.060452	 -1.020287	 -0.967456
H	 -3.996858	 0.233488	 -0.175704
H	 -3.191959	 -0.995686	 0.782074

6 3 5 9 F

4 2 3 6 F

