%nprocshared=1
%mem=2GB
#HF/6-31G* nosymm scf=tight 

Mol

0 1
O	 0.391030	 1.298905	 0.000133
C	 0.503002	 0.111612	 0.000005
C	 -0.702327	 -0.811998	 -0.000075
C	 1.863306	 -0.554493	 0.000030
C	 -1.867581	 -0.295093	 -0.835027
H	 -0.375251	 -1.787788	 -0.354514
H	 -1.005426	 -0.965533	 1.034006
H	 -1.575751	 -0.164919	 -1.869971
H	 -2.697515	 -0.993034	 -0.798384
H	 -2.211514	 0.664624	 -0.469142
H	 1.974395	 -1.189404	 -0.874166
H	 2.638695	 0.198920	 -0.000196
H	 1.974487	 -1.188655	 0.874727
