%nprocshared=1
%mem=2GB
#HF/6-31G* nosymm scf=tight 

Mol

0 1
H	 2.652209	 0.763231	 0.000000
O	 2.263154	 -0.100023	 0.000000
C	 0.912879	 -0.015685	 0.000000
C	 0.323975	 0.815011	 0.944308
C	 0.124250	 -0.719347	 -0.895550
H	 0.953561	 1.351697	 1.629434
C	 -1.051625	 0.934089	 0.983748
H	 0.581818	 -1.363541	 -1.627783
C	 -1.256069	 -0.590338	 -0.844648
H	 -1.502878	 1.578684	 1.716928
C	 -1.852986	 0.233855	 0.091330
H	 -1.861097	 -1.140097	 -1.543501
H	 -2.922503	 0.331560	 0.128087
