%nprocshared=24
%mem=2GB
#HF/6-31G* nosymm scf=tight 

Mol

0 1
H	 -2.455504	 -1.062989	 3.255514
C	 -2.425350	 -0.963885	 2.187839
C	 -1.271134	 -0.975404	 1.562018
H	 -3.351856	 -0.856911	 1.655811
O	 -0.117279	 -1.331158	 2.185651
H	 -1.172210	 -0.724803	 0.520572
C	 1.078528	 -1.148745	 1.508435
C	 1.200836	 -2.084702	 0.327198
H	 1.941381	 -1.297692	 2.147962
H	 1.092744	 -0.136610	 1.131784
F	 0.065488	 -2.082925	 -0.356021
F	 2.165925	 -1.711394	 -0.496862
F	 1.448026	 -3.323206	 0.700552

11 8 7 9 F

3 5 7 9 F

6 3 5 7 F

