%nprocshared=1
%mem=2GB
#HF/6-31G* nosymm scf=tight 

Mol

0 1
O	 1.825465	 1.324323	 -0.951462
C	 0.788116	 1.716284	 -1.379704
C	 -0.516134	 0.957269	 -1.353318
O	 0.640172	 2.906476	 -1.947763
C	 -0.823008	 0.326187	 0.001381
H	 -1.299814	 1.647936	 -1.652547
H	 -0.470175	 0.205508	 -2.136556
C	 0.382832	 -0.412310	 0.584161
H	 -1.659056	 -0.357991	 -0.104037
H	 -1.150636	 1.098827	 0.689855
C	 0.670915	 -1.737801	 -0.122903
H	 1.263952	 0.224809	 0.523301
H	 0.216873	 -0.600522	 1.643838
C	 0.830175	 -1.585015	 -1.635035
H	 -0.133728	 -2.439052	 0.086712
H	 1.574560	 -2.177752	 0.293039
H	 -0.071188	 -1.178994	 -2.085486
H	 1.033678	 -2.541045	 -2.107312
H	 1.650455	 -0.915198	 -1.877516
C	 1.792514	 3.724689	 -2.034891
H	 2.180449	 3.940881	 -1.049855
H	 1.472688	 4.634305	 -2.518819
H	 2.560106	 3.239076	 -2.620117

15 11 8 12 F

9 5 8 12 F

1 2 3 6 F

1 2 4 20 F

