%nprocshared=1
%mem=2GB
#HF/6-31G* nosymm scf=tight 

Mol

0 1
H	 -3.135461	 -1.215070	 0.001379
O	 -2.310168	 -0.871793	 -0.309793
C	 -2.026376	 0.340750	 0.341611
C	 -0.673256	 0.843270	 -0.132153
H	 -2.792215	 1.080697	 0.115987
H	 -2.013526	 0.200402	 1.421792
C	 0.486613	 -0.083066	 0.235839
H	 -0.715586	 0.970948	 -1.210718
H	 -0.508072	 1.829858	 0.297090
C	 0.150548	 -1.563186	 0.045788
H	 0.771832	 0.096711	 1.267267
H	 1.353664	 0.168714	 -0.373810
C	 -0.791770	 -2.102652	 1.121281
H	 -0.301584	 -1.706107	 -0.933430
H	 1.068901	 -2.147198	 0.045549
H	 -1.733419	 -1.561189	 1.123388
H	 -1.014205	 -3.153086	 0.959859
H	 -0.353809	 -2.005646	 2.110872

14 10 7 11 F

2 3 4 8 F

1 2 3 4 F

