%nprocshared=1
%mem=2GB
#HF/6-31G* nosymm scf=tight 

Mol

0 1
O	 3.104529	 0.779232	 -0.958101
C	 2.630363	 -0.052760	 -0.253818
C	 1.245376	 -0.013843	 0.345420
O	 3.277803	 -1.154146	 0.105906
C	 0.455112	 1.231400	 -0.050772
H	 0.742821	 -0.927273	 0.044959
H	 1.358416	 -0.078456	 1.424653
C	 -0.998893	 1.219485	 0.433193
H	 0.482531	 1.345121	 -1.130325
H	 0.957290	 2.103070	 0.354729
C	 -1.883438	 0.145884	 -0.207175
H	 -1.431207	 2.195402	 0.224832
H	 -1.019646	 1.105716	 1.516076
C	 -1.236535	 -1.240640	 -0.198954
H	 -2.833649	 0.102377	 0.322943
H	 -2.118527	 0.417480	 -1.233792
C	 -0.020065	 -1.347398	 -1.120331
H	 -1.975420	 -1.984108	 -0.493128
H	 -0.939381	 -1.493338	 0.817680
C	 0.966107	 -0.193248	 -0.943964
H	 0.490757	 -2.289749	 -0.934115
H	 -0.353923	 -1.381133	 -2.155309
H	 1.816977	 -0.297053	 -1.610185
H	 1.345510	 -0.153780	 0.073234
H	 0.494066	 0.761820	 -1.156791
C	 4.594865	 -1.315604	 -0.388223
H	 4.594952	 -1.342316	 -1.468404
H	 4.946044	 -2.255205	 0.009056
H	 5.228457	 -0.507091	 -0.052954

21 17 14 11 F

17 14 11 15 F

15 11 8 5 F

11 8 5 9 F

2 4 26 27 F

1 2 4 26 F

6 3 2 1 F

