%nprocshared=1
%mem=2GB
#HF/6-31G* nosymm scf=tight 

Mol

0 1
O	 -1.806067	 -2.021240	 1.066987
C	 -0.804681	 -1.620426	 0.566670
C	 0.497126	 -2.381750	 0.489522
O	 -0.698257	 -0.426125	 0.001050
C	 0.420719	 -3.762303	 1.129209
H	 1.260133	 -1.769417	 0.960813
H	 0.774269	 -2.446423	 -0.558464
H	 0.160272	 -3.691917	 2.178293
H	 1.378138	 -4.265788	 1.047551
H	 -0.329795	 -4.375213	 0.645067
C	 -1.853104	 0.406779	 0.000512
C	 -3.066105	 -0.499277	 -0.000959
H	 -1.828410	 1.043074	 -0.873618
H	 -1.829857	 1.042383	 0.875188
H	 -3.071820	 -1.133106	 -0.880383
H	 -3.972708	 0.097145	 -0.001528
H	 -3.073405	 -1.133813	 0.877999

4 2 3 6 F

11 4 2 3 F

