%nprocshared=1
%mem=2GB
#HF/6-31G* nosymm scf=tight 

Mol

0 1
H	 2.002971	 0.013111	 0.445982
C	 1.165597	 0.014428	 -0.238202
O	 0.000000	 0.000000	 0.521119
H	 1.223142	 0.903966	 -0.863581
H	 1.234073	 -0.862288	 -0.880361
C	 -1.165642	 0.000000	 -0.238270
H	 -1.228672	 0.883184	 -0.872070
H	 -2.003012	 0.000000	 0.445920
H	 -1.228672	 -0.883184	 -0.872070
