%nprocshared=1
%mem=2GB
#HF/6-31G* nosymm scf=tight 

Mol

0 1
O	 0.911092	 1.084644	 1.541223
C	 -0.143345	 1.136435	 0.995558
C	 -1.091821	 2.302895	 1.059665
O	 -0.632575	 0.154573	 0.251549
H	 -2.039840	 1.981633	 1.475596
H	 -0.665224	 3.083867	 1.671167
H	 -1.281588	 2.675823	 0.059830
C	 0.160891	 -1.019931	 0.106212
C	 1.589627	 -0.672828	 0.480843
H	 0.089836	 -1.367806	 -0.916050
H	 -0.238459	 -1.792301	 0.749618
C	 2.246377	 0.346236	 -0.452210
H	 2.163194	 -1.597435	 0.473358
H	 1.604769	 -0.303424	 1.502885
C	 1.358904	 1.563499	 -0.708460
H	 3.190486	 0.671580	 -0.019882
H	 2.486927	 -0.133459	 -1.395284
H	 1.845995	 2.270083	 -1.372924
H	 1.128012	 2.084502	 0.216485
H	 0.418136	 1.272933	 -1.167378

16 12 9 8 F

12 9 8 10 F

1 2 4 8 F

