%nprocshared=1
%mem=2GB
#HF/6-31G* nosymm scf=tight 

Mol

0 1
H	 1.832130	 -1.487400	 1.036103
C	 0.988814	 -0.850649	 1.249228
O	 0.464886	 -0.454746	 -0.000158
H	 1.323163	 0.007003	 1.820777
H	 0.255324	 -1.407139	 1.820520
C	 -0.590998	 0.343045	 0.000118
O	 -1.699443	 -0.054298	 0.000227
H	 -0.340329	 1.404368	 0.000207
