%nprocshared=1
%mem=2GB
#HF/6-31G* nosymm scf=tight 

Mol

0 1
O	 -3.853486	 4.767425	 2.367791
C	 -3.589812	 4.457530	 1.246542
C	 -2.652680	 3.307590	 0.923494
C	 -4.178810	 5.198743	 0.063816
C	 -2.933125	 2.035105	 1.717450
H	 -2.717326	 3.115698	 -0.146734
H	 -1.633034	 3.650735	 1.093720
C	 -4.385434	 1.572304	 1.589474
H	 -2.690874	 2.206581	 2.761499
H	 -2.264244	 1.250039	 1.379193
C	 -5.362061	 2.442429	 2.382453
H	 -4.675941	 1.572718	 0.539878
H	 -4.469252	 0.540324	 1.927201
C	 -5.259450	 3.930609	 2.043624
H	 -5.184153	 2.303466	 3.447374
H	 -6.379118	 2.101298	 2.197460
C	 -4.012047	 4.591759	 2.628902
H	 -5.259642	 4.054723	 0.962690
H	 -6.145517	 4.445254	 2.409524
H	 -3.107059	 4.121026	 2.255328
H	 -3.967156	 5.645468	 2.371255
H	 -3.999765	 4.515359	 3.712488
H	 -4.744894	 4.518640	 -0.565967
H	 -4.826996	 5.989572	 0.414927
H	 -3.388670	 5.622899	 -0.548887

9 5 8 12 F

15 11 8 12 F

15 11 14 18 F

1 2 3 6 F

