%nprocshared=1
%mem=2GB
#HF/6-31G* nosymm scf=tight 

Mol

0 1
O	 2.373390	 2.115246	 -0.105332
C	 1.294728	 2.565434	 -0.343192
C	 0.040541	 1.709933	 -0.334651
C	 1.106928	 4.032379	 -0.671764
C	 0.291004	 0.242674	 0.000989
H	 -0.659815	 2.152481	 0.372484
H	 -0.435072	 1.806044	 -1.309821
C	 -0.994322	 -0.586602	 0.000262
H	 0.772287	 0.176935	 0.971646
H	 0.997092	 -0.170011	 -0.712649
C	 -2.259874	 0.272531	 0.000494
H	 -1.004862	 -1.240012	 -0.870939
H	 -1.005220	 -1.241071	 0.870675
C	 -3.549786	 -0.549746	 -0.000374
H	 -2.250389	 0.926680	 -0.869574
H	 -2.250838	 0.925513	 0.871430
C	 -4.809590	 0.315458	 -0.000369
H	 -3.560515	 -1.202009	 -0.871156
H	 -3.561123	 -1.202955	 0.869711
H	 -4.844746	 0.956611	 -0.876632
H	 -5.706986	 -0.295590	 -0.001609
H	 -4.845960	 0.954827	 0.877144
H	 0.432007	 4.497057	 0.041099
H	 2.062584	 4.537248	 -0.646023
H	 0.663367	 4.146056	 -1.656632

15 11 8 12 F

15 11 14 18 F

1 2 3 6 F

9 5 3 6 F

