%nprocshared=1
%mem=2GB
#HF/6-31G* nosymm scf=tight 

Mol

0 1
O	 2.100578	 1.812507	 0.199892
C	 0.975978	 1.462969	 -0.040526
C	 -0.112275	 2.497254	 -0.259719
N	 0.623947	 0.147590	 -0.102813
H	 -0.915577	 2.387769	 0.460561
H	 0.339201	 3.470504	 -0.141399
H	 -0.539267	 2.422436	 -1.254034
C	 1.665360	 -0.855771	 0.000151
C	 -0.646745	 -0.327982	 -0.604228
H	 2.465253	 -0.618490	 -0.692587
H	 1.257730	 -1.821716	 -0.242189
H	 2.081488	 -0.891645	 1.004627
H	 -0.913739	 -1.240370	 -0.084324
H	 -1.434618	 0.387925	 -0.431988
H	 -0.606404	 -0.548501	 -1.669384

8 4 2 3 F

