%nprocshared=1
%mem=2GB
#HF/6-31G* nosymm scf=tight 

Mol

0 1
H	 0.079490	 -0.124325	 0.439960
N	 -0.626943	 -0.667432	 -0.000092
C	 -1.979713	 -0.158776	 0.000050
C	 -0.272905	 -1.844608	 -0.570249
H	 -2.520245	 -0.492427	 -0.879443
H	 -1.934741	 0.918111	 -0.004428
H	 -2.517790	 -0.485056	 0.883818
C	 1.199720	 -2.183126	 -0.452919
O	 -1.053784	 -2.567769	 -1.124759
H	 1.494916	 -2.251177	 0.589473
H	 1.379867	 -3.130927	 -0.937601
H	 1.807785	 -1.417386	 -0.924339

3 2 4 9 F

