%nprocshared=1
%mem=2GB
#HF/6-31G* nosymm scf=tight 

Mol

0 1
H	 1.962459	 0.407796	 0.508167
C	 1.121015	 0.448768	 -0.169769
O	 0.000000	 0.000000	 0.521119
H	 0.994204	 1.474619	 -0.512168
H	 1.334226	 -0.178268	 -1.034094
C	 -1.165642	 0.000000	 -0.238270
H	 -1.228672	 0.883184	 -0.872070
H	 -2.003012	 0.000000	 0.445920
H	 -1.228672	 -0.883184	 -0.872070
