%nprocshared=1
%mem=2GB
#HF/6-31G* nosymm scf=tight 

Mol

0 1
H	 2.448287	 -0.864207	 1.534511
O	 1.772712	 -1.135441	 0.920656
C	 0.799799	 -0.225302	 0.947419
C	 -0.318135	 -0.576402	 0.000164
O	 0.848799	 0.732249	 1.648626
C	 -1.454360	 0.441875	 -0.000474
H	 0.117123	 -0.682183	 -0.989969
H	 -0.675520	 -1.565739	 0.273097
C	 -2.826123	 -0.230780	 0.000056
H	 -1.357605	 1.085198	 -0.868380
H	 -1.357504	 1.086451	 0.866496
H	 -2.959731	 -0.858053	 -0.876869
H	 -3.619374	 0.509403	 -0.000080
H	 -2.959371	 -0.857318	 0.877556

2 3 4 7 F

1 2 3 5 F

