%nprocshared=1
%mem=2GB
#HF/6-31G* nosymm scf=tight 

Mol

0 1
H	 -0.944757	 -0.000069	 1.678017
O	 -0.042387	 -0.000390	 1.388199
C	 -0.001487	 0.000018	 -0.026623
C	 0.505576	 -1.354804	 -0.524602
C	 -1.397154	 0.295723	 -0.579177
C	 0.973666	 1.111921	 -0.396988
H	 0.588629	 -1.373286	 -1.606572
H	 -0.173127	 -2.152652	 -0.231843
H	 1.479842	 -1.570004	 -0.099736
H	 -1.392095	 0.342392	 -1.663560
H	 -2.101125	 -0.479512	 -0.285291
H	 -1.760192	 1.242355	 -0.194511
H	 1.077572	 1.195266	 -1.474022
H	 1.949768	 0.911811	 0.030409
H	 0.623777	 2.061704	 -0.008553
