%nprocshared=1
%mem=2GB
#HF/6-31G* nosymm scf=tight 

Mol

0 1
H	 -4.328234	 0.999511	 -1.375652
N	 -3.564579	 1.168332	 -0.749653
C	 -3.190633	 -0.052827	 -0.050754
H	 -3.872891	 1.865196	 -0.098382
C	 -1.966835	 0.184706	 0.827683
H	 -2.954127	 -0.802152	 -0.800044
H	 -3.999757	 -0.463670	 0.558284
C	 -0.679275	 0.379305	 0.025956
H	 -2.155787	 1.053717	 1.451342
H	 -1.845457	 -0.660327	 1.504827
C	 -0.791153	 1.473151	 -1.037697
H	 -0.408145	 -0.559522	 -0.454607
H	 0.138517	 0.621722	 0.702933
C	 -2.115055	 2.234023	 -0.975523
H	 0.033362	 2.173024	 -0.921214
H	 -0.676491	 1.028719	 -2.024099
H	 -2.243718	 2.718807	 -0.011807
H	 -2.163946	 3.002377	 -1.740928
H	 -2.958889	 1.565841	 -1.123406

6 3 5 9 F

12 8 5 9 F

1 2 3 6 F

