%nprocshared=1
%mem=2GB
#HF/6-31G* nosymm scf=tight 

Mol

0 1
O	 0.726526	 0.267520	 -0.942983
C	 0.028650	 0.075053	 -0.000277
C	 -1.233602	 -0.752807	 0.000328
O	 0.275887	 0.576768	 1.202660
C	 -2.501530	 0.091881	 0.000126
H	 -1.193807	 -1.406641	 -0.865785
H	 -1.193516	 -1.405779	 0.867015
H	 -2.545121	 0.729328	 -0.874513
H	 -3.377167	 -0.548497	 0.000561
H	 -2.544818	 0.730135	 0.874258
C	 1.436005	 1.377483	 1.338937
H	 2.321232	 0.808058	 1.094927
H	 1.462309	 1.685199	 2.372611
H	 1.379594	 2.241221	 0.692217

11 4 2 3 F

