%nprocshared=1
%mem=2GB
#HF/6-31G* nosymm scf=tight 

Mol

0 1
O	 3.225979	 0.970355	 -0.599647
C	 2.701189	 0.057885	 -0.047330
C	 1.245376	 -0.013843	 0.345420
O	 3.347903	 -1.046386	 0.304773
C	 0.455112	 1.231400	 -0.050772
H	 0.838542	 -0.913825	 -0.103701
H	 1.208210	 -0.175333	 1.419774
C	 -0.998893	 1.219485	 0.433193
H	 0.482531	 1.345121	 -1.130325
H	 0.957290	 2.103070	 0.354729
C	 -1.883438	 0.145884	 -0.207175
H	 -1.431207	 2.195402	 0.224832
H	 -1.019646	 1.105716	 1.516076
C	 -1.076464	 -0.977880	 -0.860587
H	 -2.539103	 -0.277164	 0.552399
H	 -2.532677	 0.593242	 -0.956396
C	 -0.304856	 -0.527113	 -2.102184
H	 -1.746912	 -1.791867	 -1.131067
H	 -0.377450	 -1.388794	 -0.133793
C	 0.482108	 0.764093	 -1.880431
H	 0.377567	 -1.317215	 -2.408254
H	 -0.999974	 -0.388207	 -2.927591
H	 1.017996	 1.057668	 -2.777786
H	 1.211009	 0.646960	 -1.083450
H	 -0.177155	 1.582898	 -1.606197
C	 4.728119	 -1.109107	 -0.004993
H	 4.882018	 -1.033965	 -1.071845
H	 5.068212	 -2.067527	 0.355250
H	 5.265056	 -0.311663	 0.488280

21 17 14 11 F

17 14 11 15 F

6 3 5 9 F

11 8 5 9 F

2 4 26 27 F

1 2 4 26 F

6 3 2 1 F

