%nprocshared=1
%mem=2GB
#HF/6-31G* nosymm scf=tight 
prop=(read,field)

Mol

0 1
H	 -0.944769	 -0.000069	 1.678176
O	 -0.042399	 -0.000390	 1.388358
C	 -0.001499	 0.000018	 -0.026464
C	 -0.688123	 -1.259218	 -0.558923
C	 -0.686896	 1.260226	 -0.558207
C	 1.480955	 -0.000609	 -0.382485
H	 -0.637130	 -1.310329	 -1.641829
H	 -1.738355	 -1.275242	 -0.276679
H	 -0.216686	 -2.145532	 -0.148786
H	 -0.637744	 1.310752	 -1.641314
H	 -1.736605	 1.278074	 -0.274087
H	 -0.213230	 2.145873	 -0.149371
H	 1.622494	 -0.000913	 -1.458455
H	 1.964971	 -0.878485	 0.030492
H	 1.965578	 0.877084	 0.030054

@grid.dat /N
