%nprocshared=1
%mem=2GB
#HF/6-31G* nosymm scf=tight 

Mol

0 1
O	 0.888560	 1.036733	 0.704466
C	 0.576249	 0.131685	 -0.000108
C	 -0.766779	 -0.556801	 -0.000461
O	 1.391071	 -0.402883	 -0.900645
C	 -1.945214	 0.412366	 0.000161
H	 -0.796911	 -1.211249	 -0.867467
H	 -0.796854	 -1.212390	 0.865687
C	 -3.042613	 -0.019561	 0.971614
H	 -2.348158	 0.486665	 -1.004189
H	 -1.592168	 1.404984	 0.258315
H	 -3.435292	 -0.999517	 0.714826
H	 -3.870624	 0.681564	 0.956652
H	 -2.671244	 -0.069924	 1.991429
C	 2.689147	 0.153576	 -1.003392
H	 2.634374	 1.198297	 -1.273763
H	 3.190088	 -0.407164	 -1.777016
H	 3.219560	 0.056275	 -0.067067

1 2 3 6 F

14 4 2 1 F

