%nprocshared=1
%mem=2GB
#HF/6-31G* nosymm scf=tight 

Mol

0 1
H	 2.762751	 1.921259	 -1.173584
N	 2.000309	 1.273642	 -1.226681
C	 1.865559	 0.531981	 0.018834
H	 2.201831	 0.651008	 -1.985988
C	 0.645745	 -0.382037	 -0.029944
H	 1.740934	 1.253718	 0.820347
H	 2.751575	 -0.058782	 0.264545
C	 -0.679275	 0.379305	 0.025956
H	 0.698998	 -0.976915	 -0.937203
H	 0.693479	 -1.083846	 0.802235
C	 -1.876994	 -0.462046	 -0.418985
H	 -0.612662	 1.266009	 -0.602668
H	 -0.851343	 0.737504	 1.039827
C	 -3.198313	 0.303954	 -0.365418
H	 -1.707916	 -0.819936	 -1.432169
H	 -1.947667	 -1.347572	 0.209111
H	 -3.171354	 1.177701	 -1.010520
H	 -4.027633	 -0.318526	 -0.686902
H	 -3.413039	 0.645734	 0.643279

6 3 5 9 F

12 8 11 15 F

1 2 3 6 F

