%nprocshared=1
%mem=2GB
#HF/6-31G* nosymm scf=tight 

Mol

0 1
H	 5.081499	 -4.425298	 3.573887
C	 4.359768	 -3.840333	 3.031941
C	 3.008727	 -3.974487	 3.314498
C	 4.783352	 -2.954902	 2.053411
H	 2.681561	 -4.661539	 4.073634
C	 2.081323	 -3.221999	 2.617242
H	 5.831062	 -2.852257	 1.835756
C	 3.856800	 -2.200621	 1.354172
H	 1.031893	 -3.312737	 2.822512
C	 2.502017	 -2.332764	 1.634999
H	 4.180122	 -1.514220	 0.596123
C	 1.463013	 -1.545621	 0.912827
O	 1.970282	 -0.730723	 0.000018
O	 0.294355	 -1.632361	 1.126304
C	 3.377318	 -0.566646	 -0.000065
H	 3.695437	 -0.028981	 -0.881264
H	 3.789299	 -1.563704	 0.000236
H	 3.695516	 -0.028316	 0.880770

12 13 15 16 F

13 12 10 6 F

