%nprocshared=1
%mem=2GB
#HF/6-31G* nosymm scf=tight 
prop=(read,field)

Mol

0 1
H	 1.725800	 0.004109	 -2.035476
C	 1.149701	 0.002704	 -1.126377
N	 1.839433	 0.007882	 -0.000000
C	 -0.232811	 -0.007412	 -1.183199
C	 1.149701	 0.002704	 1.126377
H	 -0.729586	 -0.014427	 -2.136767
C	 -0.959294	 -0.010728	 -0.000000
H	 1.725800	 0.004109	 2.035476
C	 -0.232811	 -0.007412	 1.183199
C	 -2.467700	 0.007701	 0.000000
H	 -0.729586	 -0.014427	 2.136767
H	 -2.867176	 -0.485483	 -0.878495
H	 -2.867176	 -0.485484	 0.878495
H	 -2.834300	 1.030338	 0.000000

@grid.dat /N
