%nprocshared=1
%mem=2GB
#HF/6-31G* nosymm scf=tight 

Mol

0 1
H	 3.463890	 0.208316	 -0.745344
C	 2.752813	 -0.005338	 0.044371
C	 1.322923	 0.120767	 -0.479465
H	 2.954012	 -1.007707	 0.409264
H	 2.939290	 0.691693	 0.855523
C	 0.306652	 -0.176050	 0.621399
H	 1.163820	 -0.571439	 -1.299808
H	 1.147286	 1.121102	 -0.857280
N	 -1.068537	 -0.011044	 0.085269
H	 0.372515	 -1.192590	 0.973735
H	 0.391664	 0.520566	 1.441230
O	 -1.656956	 -0.997225	 -0.235017
O	 -1.478635	 1.104830	 -0.018026

12 9 6 3 F

