%nprocshared=1
%mem=2GB
#HF/6-31G* nosymm scf=tight 

Mol

0 1
H	 -3.135461	 -1.215070	 0.001379
O	 -2.310168	 -0.871793	 -0.309793
C	 -2.026376	 0.340750	 0.341611
C	 -0.673256	 0.843270	 -0.132153
H	 -2.792215	 1.080697	 0.115987
H	 -2.013526	 0.200402	 1.421792
C	 0.486613	 -0.083066	 0.235839
H	 -0.715586	 0.970948	 -1.210718
H	 -0.508072	 1.829858	 0.297090
C	 0.136429	 -1.058404	 1.360962
H	 1.342591	 0.517143	 0.526640
H	 0.788708	 -0.646824	 -0.646066
C	 0.068057	 -0.386267	 2.731812
H	 -0.819643	 -1.529814	 1.143210
H	 0.872024	 -1.860000	 1.389042
H	 -0.683828	 0.397546	 2.745862
H	 -0.184157	 -1.100998	 3.509302
H	 1.020335	 0.066028	 2.994694

14 10 7 11 F

2 3 4 8 F

1 2 3 4 F

