%nprocshared=1
%mem=2GB
#HF/6-31G* nosymm scf=tight 

Mol

0 1
H	 -2.417120	 0.602588	 -1.159943
C	 -1.421955	 0.175248	 -1.200570
C	 -0.603454	 0.661669	 0.000000
H	 -0.958808	 0.474793	 -2.132884
H	 -1.512739	 -0.904188	 -1.196530
C	 0.763625	 0.112519	 0.000000
H	 -0.527687	 1.742793	 0.000000
H	 -1.078108	 0.372550	 0.930421
N	 1.813038	 -0.320305	 0.000000
