%nprocshared=1
%mem=2GB
#HF/6-31G* nosymm scf=tight 

Mol

0 1
H	 0.520913	 -3.355335	 -0.750069
O	 0.895837	 -2.618051	 -0.278264
C	 0.102382	 -1.563045	 -0.462125
C	 0.624473	 -0.343591	 0.253101
O	 -0.886133	 -1.623171	 -1.118051
C	 -0.265902	 0.883932	 0.072916
H	 0.740303	 -0.614115	 1.297502
H	 1.628992	 -0.158063	 -0.118751
C	 -1.728698	 0.646073	 0.462102
H	 -0.209144	 1.219470	 -0.958188
H	 0.135059	 1.692851	 0.673903
C	 -2.010206	 -0.707282	 1.120995
H	 -2.334201	 0.725760	 -0.437774
H	 -2.063654	 1.444913	 1.122265
C	 -1.026665	 -1.028397	 2.246166
H	 -3.023985	 -0.709071	 1.516335
H	 -1.969026	 -1.501473	 0.380086
H	 -1.244971	 -1.991825	 2.696125
H	 -1.070614	 -0.278680	 3.030909
H	 -0.005460	 -1.059692	 1.876847

16 12 9 6 F

7 4 6 10 F

5 3 4 7 F

1 2 3 5 F

