%nprocshared=1
%mem=2GB
#HF/6-31G* nosymm scf=tight 

Mol

0 1
H	 3.712620	 0.860615	 1.568536
O	 2.845440	 0.481272	 1.570294
C	 1.882643	 1.503743	 1.557366
C	 0.507252	 0.860284	 1.560110
H	 1.995184	 2.146967	 2.429091
H	 1.999826	 2.129193	 0.673386
C	 0.198102	 0.111031	 0.262842
H	 -0.233317	 1.637223	 1.729378
H	 0.448355	 0.182998	 2.407630
C	 1.331804	 -0.827780	 -0.158768
H	 -0.722995	 -0.453214	 0.386855
H	 0.013588	 0.828120	 -0.536068
C	 2.723619	 -0.410569	 0.329459
H	 1.342964	 -0.912588	 -1.244120
H	 1.116806	 -1.824343	 0.220779
C	 3.243875	 0.895854	 -0.272975
H	 3.424222	 -1.207124	 0.091250
H	 2.714788	 -0.329854	 1.414619
H	 3.251977	 0.848779	 -1.358681
H	 2.637085	 1.747371	 0.016682
H	 4.259473	 1.094070	 0.055697

2 3 4 8 F

8 4 7 10 F

16 13 10 14 F

1 2 3 5 F

