%nprocshared=1
%mem=2GB
#HF/6-31G* nosymm scf=tight 
prop=(read,field)

Mol

0 1
H	 -2.655533	 0.008542	 0.000000
C	 -1.668725	 -0.439603	 -0.000000
C	 -0.603259	 0.661624	 -0.000000
H	 -1.578019	 -1.067231	 -0.878235
H	 -1.578019	 -1.067231	 0.878235
C	 0.763820	 0.112474	 -0.000000
H	 -0.707006	 1.295858	 -0.872670
H	 -0.707006	 1.295858	 0.872670
N	 1.813233	 -0.320350	 0.000000

@grid.dat /N
