%nprocshared=1
%mem=2GB
#HF/6-31G* nosymm scf=tight 

Mol

0 1
H	 1.035040	 0.189664	 1.366400
C	 0.131337	 -0.381923	 1.182142
N	 -0.528168	 0.128977	 -0.000000
H	 -0.517053	 -0.260662	 2.042330
H	 0.413278	 -1.435812	 1.110775
C	 0.248044	 -0.037491	 -1.209632
H	 -1.419906	 -0.311910	 -0.107003
H	 0.998722	 0.743888	 -1.266824
H	 -0.398417	 0.061950	 -2.074060
H	 0.763621	 -0.999315	 -1.275517
