%nprocshared=1
%mem=2GB
#HF/6-31G* nosymm scf=tight 

Mol

0 1
O	 3.225979	 0.970355	 -0.599647
C	 2.701189	 0.057885	 -0.047330
C	 1.245376	 -0.013843	 0.345420
O	 3.347903	 -1.046386	 0.304773
C	 0.455112	 1.231400	 -0.050772
H	 0.838542	 -0.913825	 -0.103701
H	 1.208210	 -0.175333	 1.419774
C	 -0.998893	 1.219485	 0.433193
H	 0.482531	 1.345121	 -1.130325
H	 0.957290	 2.103070	 0.354729
C	 -1.883438	 0.145884	 -0.207175
H	 -1.431207	 2.195402	 0.224832
H	 -1.019646	 1.105716	 1.516076
C	 -1.141808	 -0.690764	 -1.251688
H	 -2.269385	 -0.510606	 0.571211
H	 -2.750204	 0.605580	 -0.676609
C	 -0.770466	 0.098713	 -2.508255
H	 -1.757570	 -1.543397	 -1.532913
H	 -0.237294	 -1.102764	 -0.806931
C	 -0.111861	 1.442206	 -2.196859
H	 -0.099609	 -0.497838	 -3.122845
H	 -1.664063	 0.265438	 -3.106141
H	 0.139434	 1.977920	 -3.107061
H	 0.804349	 1.307356	 -1.628906
H	 -0.771990	 2.076185	 -1.611560
C	 4.728119	 -1.109107	 -0.004993
H	 4.882018	 -1.033965	 -1.071845
H	 5.068212	 -2.067527	 0.355250
H	 5.265056	 -0.311663	 0.488280

21 17 14 11 F

17 14 11 15 F

6 3 5 9 F

11 8 5 9 F

2 4 26 27 F

1 2 4 26 F

6 3 2 1 F

