%nprocshared=1
%mem=2GB
#HF/6-31G* nosymm scf=tight 

Mol

0 1
H	 -0.367348	 2.047014	 -0.308205
C	 0.352277	 1.337084	 0.083769
N	 -0.000016	 0.000074	 -0.335546
H	 1.328359	 1.600444	 -0.307950
H	 0.381933	 1.450534	 1.172486
C	 0.785995	 -1.003775	 0.344707
C	 -1.418036	 -0.248881	 -0.211462
H	 0.545255	 -1.986124	 -0.045660
H	 1.841099	 -0.824921	 0.170841
H	 0.618279	 -1.018339	 1.426623
H	 -1.971803	 0.480813	 -0.791343
H	 -1.654182	 -1.232928	 -0.600467
H	 -1.772632	 -0.199135	 0.823291
