%nprocshared=1
%mem=2GB
#HF/6-31G* nosymm scf=tight opt=ModRedundant

Mol

0 1
H	 1.077000	 -2.119000	 -0.000000
C	 0.603000	 -1.151000	 -0.000000
N	 -0.717000	 -1.162000	 -0.000000
C	 1.382000	 -0.004000	 0.000000
C	 -1.366000	 -0.009000	 0.000000
C	 0.693000	 1.201000	 0.000000
C	 2.890000	 -0.065000	 0.000000
C	 -0.688000	 1.204000	 -0.000000
C	 -2.871000	 -0.082000	 -0.000000
H	 1.233000	 2.133000	 -0.000000
H	 3.305000	 0.424000	 -0.876000
H	 3.238000	 -1.092000	 -0.000000
H	 3.305000	 0.424000	 0.876000
H	 -1.233000	 2.130000	 -0.000000
H	 -3.220000	 -0.621000	 -0.874000
H	 -3.321000	 0.904000	 -0.000000
H	 -3.220000	 -0.621000	 0.874000
