%nprocshared=1
%mem=2GB
#HF/6-31G* nosymm scf=tight 

Mol

0 1
H	 2.866480	 -0.465706	 0.876907
C	 2.405773	 -0.024801	 0.000000
N	 0.988830	 -0.304158	 0.000000
H	 2.866480	 -0.465706	 -0.876907
H	 2.629928	 1.045948	 0.000000
C	 0.534705	 -0.861365	 -1.260658
C	 0.196083	 0.856178	 0.362134
H	 0.698149	 -0.166097	 -2.090349
H	 1.097180	 -1.765335	 -1.472096
C	 -0.945774	 -1.193392	 -1.171614
H	 0.510604	 1.209871	 1.338978
H	 0.334852	 1.676603	 -0.349305
C	 -1.275416	 0.478605	 0.408144
H	 -1.321901	 -1.526848	 -2.129921
H	 -1.098385	 -1.987745	 -0.443134
O	 -1.691470	 -0.063935	 -0.813537
H	 -1.889312	 1.351147	 0.589304
H	 -1.443536	 -0.237084	 1.210949
