%nprocshared=1
%mem=2GB
#HF/6-31G* nosymm scf=tight 

Mol

0 1
H	 -1.182884	 1.671963	 1.733542
C	 -0.943865	 0.930515	 0.996975
C	 -1.922096	 0.456065	 0.061301
C	 0.289194	 0.413560	 0.921213
H	 -2.921642	 0.851924	 0.096631
C	 -1.599521	 -0.471916	 -0.850982
H	 1.077881	 0.714915	 1.584208
N	 0.640212	 -0.532897	 -0.000111
H	 -2.304009	 -0.850041	 -1.565877
C	 -0.257661	 -1.034255	 -0.933245
C	 2.010177	 -1.032049	 0.000042
O	 0.072109	 -1.869394	 -1.738230
H	 2.187698	 -1.635381	 -0.882279
H	 2.677579	 -0.189247	 -0.001871
H	 2.188882	 -1.632203	 0.884288
