%nprocshared=1
%mem=2GB
#HF/6-31G* nosymm scf=tight 

Mol

0 1
H	 -1.836216	 1.387520	 -0.000064
C	 -1.301823	 0.443321	 -0.000031
O	 -0.003969	 0.658512	 0.000451
O	 -1.829879	 -0.616434	 -0.000857
C	 0.713792	 0.337330	 1.191605
C	 0.290355	 1.325137	 2.257090
H	 1.773853	 0.397208	 0.986656
H	 0.484288	 -0.681067	 1.473545
H	 0.520580	 2.340161	 1.954175
H	 0.815579	 1.115342	 3.183028
H	 -0.775222	 1.256793	 2.443538

7 5 3 2 F

