%nprocshared=1
%mem=2GB
#HF/6-31G* nosymm scf=tight 

Mol

0 1
H	 -3.489899	 1.228218	 -1.029938
O	 -3.452007	 0.283848	 -0.965577
C	 -3.181085	 -0.079926	 0.364119
C	 -1.765924	 0.277073	 0.805136
H	 -3.327791	 -1.152017	 0.410903
H	 -3.905698	 0.375695	 1.036898
C	 -0.677518	 -0.398609	 -0.029934
H	 -1.643381	 1.359694	 0.761808
H	 -1.654007	 0.001388	 1.852367
C	 -0.628038	 -1.915720	 0.162689
H	 0.285617	 0.034482	 0.222081
H	 -0.847197	 -0.173876	 -1.081646
C	 -2.007988	 -2.571561	 0.064221
H	 0.041020	 -2.344760	 -0.579405
H	 -0.192086	 -2.143342	 1.134666
C	 -2.975323	 -2.203767	 1.195215
H	 -1.890333	 -3.653572	 0.030983
H	 -2.461287	 -2.287471	 -0.883212
C	 -4.425081	 -2.629441	 0.955615
H	 -2.947697	 -1.125788	 1.334812
H	 -2.620616	 -2.638799	 2.127488
H	 -4.802952	 -2.219027	 0.022924
H	 -5.068041	 -2.275390	 1.755670
H	 -4.529522	 -3.708355	 0.908692

20 16 13 17 F

17 13 10 7 F

13 10 7 11 F

11 7 4 3 F

1 2 3 5 F

