%nprocshared=1
%mem=2GB
#HF/6-31G* nosymm scf=tight 

Mol

0 1
H	 -2.991180	 -1.316313	 1.516070
C	 -2.558893	 -0.463827	 0.995939
O	 -1.220621	 -0.682426	 0.685166
H	 -3.089674	 -0.315461	 0.065670
H	 -2.686405	 0.420939	 1.618319
C	 -0.403392	 -0.885118	 1.794356
C	 0.994968	 -1.218684	 1.330108
H	 -0.371599	 0.014664	 2.410049
H	 -0.780760	 -1.699436	 2.409567
O	 1.392611	 -0.295398	 0.366430
H	 1.669645	 -1.202188	 2.183657
H	 1.003585	 -2.226914	 0.914066
C	 2.706965	 -0.449871	 -0.062409
H	 2.756559	 -0.644779	 -1.131878
H	 3.305899	 0.433456	 0.155466
H	 3.125548	 -1.294566	 0.467107

3 6 7 11 F

2 3 6 7 F

