%nprocshared=1
%mem=2GB
#HF/6-31G* nosymm scf=tight 

Mol

0 1
O	 0.391030	 1.298905	 0.000133
C	 0.503002	 0.111612	 0.000005
C	 -0.702327	 -0.811998	 -0.000075
C	 1.863306	 -0.554493	 0.000030
C	 -0.373711	 -2.244729	 0.401725
H	 -1.450063	 -0.385226	 0.665904
H	 -1.146743	 -0.780936	 -0.993199
H	 0.045825	 -2.281391	 1.399655
H	 -1.269325	 -2.856953	 0.384009
H	 0.351832	 -2.680610	 -0.274156
H	 1.974395	 -1.189404	 -0.874166
H	 2.638695	 0.198920	 -0.000196
H	 1.974487	 -1.188655	 0.874727
