%nprocshared=1
%mem=2GB
#HF/6-31G* nosymm scf=tight 

Mol

0 1
H	 -2.798360	 -0.862255	 -0.071053
N	 -1.863561	 -0.715187	 0.256814
C	 -1.344686	 0.554728	 -0.219830
H	 -1.300452	 -1.461917	 -0.101532
C	 -0.652496	 0.362795	 -1.552935
H	 -2.108370	 1.324880	 -0.336690
H	 -0.617412	 0.923410	 0.497056
O	 0.468798	 -0.449245	 -1.351989
H	 -1.331010	 -0.105567	 -2.265602
H	 -0.351884	 1.329277	 -1.951406
C	 1.251204	 -0.639169	 -2.487479
H	 2.079359	 -1.277957	 -2.212151
H	 0.686367	 -1.120086	 -3.284135
H	 1.642651	 0.304044	 -2.862885

8 5 3 6 F

5 8 11 13 F

11 8 5 3 F

