%nprocshared=1
%mem=2GB
#HF/6-31G* nosymm scf=tight 

Mol

0 1
H	 -0.216825	 0.021369	 -3.357402
C	 0.374198	 0.036393	 -2.447010
C	 -0.521757	 -0.028637	 -1.217342
H	 0.969602	 0.942322	 -2.434777
H	 1.053364	 -0.811668	 -2.481329
N	 0.263400	 0.031178	 0.000000
H	 -1.199035	 0.820290	 -1.219355
H	 -1.147901	 -0.924895	 -1.265384
C	 -0.521757	 -0.028637	 1.217342
H	 0.935769	 -0.712709	 0.000000
C	 -1.791536	 -0.842552	 1.006975
H	 0.086290	 -0.500581	 1.983458
H	 -0.780302	 0.965297	 1.595353
H	 -1.548345	 -1.845155	 0.673796
H	 -2.363671	 -0.911368	 1.926906
H	 -2.429804	 -0.384353	 0.255764
