%nprocshared=1
%mem=2GB
#HF/6-31G* nosymm scf=tight 

Mol

0 1
H	 -3.042581	 -0.665861	 0.004336
O	 -2.245037	 -1.176175	 0.000806
C	 -1.162163	 -0.365336	 0.001020
C	 -1.255881	 0.999501	 0.205392
C	 0.074798	 -0.959114	 -0.218492
H	 -2.214230	 1.461517	 0.372963
C	 -0.098291	 1.764742	 0.188078
H	 0.110585	 -2.021677	 -0.375961
C	 1.228704	 -0.195331	 -0.234269
H	 -0.167758	 2.826728	 0.344284
C	 1.133453	 1.181233	 -0.029406
C	 2.576811	 -0.843107	 -0.448965
H	 2.021510	 1.788287	 -0.042420
H	 3.186525	 -0.260341	 -1.131185
H	 2.475486	 -1.841516	 -0.857344
H	 3.119857	 -0.921797	 0.488721
