%nprocshared=1
%mem=2GB
#HF/6-31G* nosymm scf=tight 

Mol

0 1
H	 -0.000158	 1.970498	 0.756846
O	 -0.000074	 1.880206	 -0.189275
C	 -0.000015	 0.544847	 -0.545111
C	 -1.319183	 0.188146	 -1.222273
C	 0.324644	 -0.316298	 0.671041
H	 0.787713	 0.396221	 -1.268642
F	 -1.473976	 0.922302	 -2.303290
F	 -1.370679	 -1.077815	 -1.578712
F	 -2.341734	 0.432474	 -0.418351
F	 1.512438	 0.006007	 1.136661
F	 0.334186	 -1.600894	 0.384505
F	 -0.556284	 -0.115701	 1.638152

7 4 3 6 F

