%nprocshared=1
%mem=2GB
#HF/6-31G* nosymm scf=tight 

Mol

0 1
O	 -2.042549	 -1.228399	 -0.269030
C	 -1.653912	 -0.146171	 0.050137
C	 -0.332303	 0.024011	 0.778412
C	 -2.438579	 1.106236	 -0.272369
C	 0.783137	 0.433300	 -0.196343
H	 -0.424542	 0.765418	 1.567203
H	 -0.083600	 -0.927445	 1.235357
C	 1.144410	 -0.681249	 -1.179345
H	 1.672364	 0.721016	 0.361850
H	 0.459717	 1.314575	 -0.742141
C	 -0.083560	 -1.315320	 -1.831458
H	 1.799867	 -0.284082	 -1.951394
H	 1.713601	 -1.447323	 -0.658076
H	 -0.655880	 -0.579699	 -2.389458
H	 -0.742387	 -1.750140	 -1.085589
H	 0.202449	 -2.103591	 -2.520555
H	 -3.277823	 0.863061	 -0.908988
H	 -1.806773	 1.843019	 -0.759671
H	 -2.802853	 1.554979	 0.648059

11 8 5 9 F

9 5 3 2 F

