%nprocshared=1
%mem=2GB
#HF/6-31G* nosymm scf=tight 

Mol

0 1
O	 -0.806752	 -1.114546	 1.082146
C	 -0.561929	 -0.074560	 0.531515
C	 -1.597472	 1.034011	 0.503089
N	 0.623947	 0.147590	 -0.102813
H	 -1.868528	 1.298769	 -0.513038
H	 -2.472791	 0.671041	 1.019920
H	 -1.237628	 1.928840	 0.999450
C	 0.636503	 0.206270	 -1.551355
C	 1.918883	 -0.011528	 0.521742
H	 1.603819	 0.560634	 -1.890092
H	 -0.129836	 0.881825	 -1.889425
H	 0.458687	 -0.774097	 -1.988030
H	 2.614454	 0.691634	 0.079269
H	 1.877244	 0.193005	 1.579743
H	 2.318624	 -1.013786	 0.378569

2 4 8 10 F

