%nprocshared=1
%mem=2GB
#HF/6-31G* nosymm scf=tight 

Mol

0 1
H	 -2.798360	 -0.862255	 -0.071053
N	 -1.863561	 -0.715187	 0.256814
C	 -1.344686	 0.554728	 -0.219830
H	 -1.300452	 -1.461917	 -0.101532
C	 0.081427	 0.741154	 0.254071
H	 -1.362155	 0.656231	 -1.305829
H	 -1.952773	 1.354456	 0.191809
O	 0.114043	 1.833333	 1.127667
H	 0.429159	 -0.156838	 0.764298
H	 0.730020	 0.921873	 -0.600272
C	 1.387494	 2.172200	 1.576068
H	 1.286865	 3.020899	 2.238850
H	 1.848128	 1.351719	 2.123434
H	 2.040396	 2.445255	 0.749649

6 3 2 4 F

5 8 11 13 F

11 8 5 3 F

