%nprocshared=1
%mem=2GB
#HF/6-31G* nosymm scf=tight 

Mol

0 1
H	 -2.095764	 0.435638	 -2.350391
C	 -2.795213	 1.048318	 -1.768139
C	 -2.660244	 0.921717	 -0.272021
O	 -3.583432	 1.744001	 -2.321751
C	 -4.015009	 0.748661	 0.428634
H	 -1.992163	 0.095671	 -0.057489
H	 -2.186665	 1.835510	 0.084854
C	 -4.902224	 1.994114	 0.357958
H	 -4.533263	 -0.089773	 -0.027137
H	 -3.850939	 0.473350	 1.469327
C	 -6.253274	 1.803461	 1.050150
H	 -5.062659	 2.258041	 -0.685331
H	 -4.386047	 2.840886	 0.806374
C	 -7.144331	 3.045428	 0.963640
H	 -6.759475	 0.950440	 0.605350
H	 -6.089580	 1.551128	 2.097010
C	 -8.476090	 2.930578	 1.714174
H	 -7.340708	 3.275648	 -0.082366
H	 -6.595566	 3.895780	 1.362978
C	 -9.441535	 1.892099	 1.140506
H	 -8.962502	 3.902772	 1.700334
H	 -8.281521	 2.704290	 2.760528
H	 -9.641833	 2.084110	 0.089658
H	 -9.050397	 0.883621	 1.223924
H	 -10.390864	 1.916855	 1.666962

6 3 5 8 F

3 5 8 12 F

12 8 11 14 F

8 11 14 18 F

20 17 14 18 F

