%nprocshared=1
%mem=2GB
#HF/6-31G* nosymm scf=tight 

Mol

0 1
H	 3.083879	 -1.346558	 0.395444
O	 2.172668	 -1.603300	 0.415122
C	 1.365383	 -0.540424	 0.207814
C	 0.180308	 -0.358064	 0.908990
C	 1.756131	 0.385963	 -0.743266
H	 -0.121953	 -1.080191	 1.648724
C	 -0.612511	 0.749445	 0.658929
H	 2.671266	 0.246305	 -1.285574
C	 0.956645	 1.491954	 -0.987526
H	 -1.527422	 0.879822	 1.207852
C	 -0.229730	 1.680309	 -0.289809
C	 1.370516	 2.491091	 -2.007970
H	 -0.844025	 2.541293	 -0.485650
O	 2.436857	 2.515475	 -2.534152
H	 0.608770	 3.235040	 -2.260021

11 9 12 14 F

