%nprocshared=1
%mem=2GB
#HF/6-31G* nosymm scf=tight 

Mol

0 1
H	 -0.428627	 0.164271	 3.150165
O	 -0.306307	 0.028079	 2.221629
C	 -0.142393	 1.267351	 1.579365
C	 0.031547	 1.023609	 0.088541
H	 0.736666	 1.781844	 1.963347
H	 -1.000013	 1.909961	 1.765483
C	 -1.134819	 0.293262	 -0.585751
H	 0.939790	 0.444332	 -0.052248
H	 0.192886	 1.985870	 -0.394410
C	 -1.917817	 -0.639439	 0.339494
H	 -0.758119	 -0.268455	 -1.433105
H	 -1.813832	 1.041889	 -0.986690
H	 -2.777680	 -1.057197	 -0.174994
H	 -1.310268	 -1.471279	 0.680599
H	 -2.283753	 -0.111424	 1.216626

2 3 4 8 F

1 2 3 4 F

