%nprocshared=1
%mem=2GB
#HF/6-31G* nosymm scf=tight 

Mol

0 1
H	 6.314723	 -7.416328	 2.974661
C	 6.326185	 -7.197141	 1.911483
C	 7.187333	 -5.971424	 1.609458
H	 6.704766	 -8.075281	 1.396811
H	 5.298216	 -7.044448	 1.594049
C	 7.219713	 -5.630099	 0.118062
H	 8.198272	 -6.148047	 1.962172
H	 6.804483	 -5.117205	 2.165721
C	 5.839546	 -5.611152	 -0.539240
H	 7.690701	 -4.663815	 -0.023748
H	 7.835211	 -6.361713	 -0.400537
C	 4.964761	 -4.436609	 -0.126394
H	 5.948573	 -5.551099	 -1.621034
H	 5.305609	 -6.539506	 -0.348854
C	 3.475324	 -4.538016	 -0.405696
O	 5.427572	 -3.460061	 0.382099
C	 3.142513	 -5.197708	 -1.752249
H	 3.077758	 -3.530724	 -0.373804
H	 3.010537	 -5.105855	 0.398180
C	 3.906992	 -6.506058	 -1.962969
H	 2.073565	 -5.394231	 -1.800676
H	 3.371148	 -4.517137	 -2.568350
C	 3.584233	 -7.172245	 -3.299729
H	 3.675183	 -7.191428	 -1.151430
H	 4.975620	 -6.311267	 -1.903941
H	 2.526789	 -7.408725	 -3.374670
H	 3.837980	 -6.523738	 -4.133494
H	 4.139105	 -8.097216	 -3.419829

10 6 3 2 F

12 15 17 21 F

