%nprocshared=1
%mem=2GB
#HF/6-31G* nosymm scf=tight 

Mol

0 1
O	 -3.853486	 4.767425	 2.367791
C	 -3.589812	 4.457530	 1.246542
C	 -2.652680	 3.307590	 0.923494
C	 -4.178810	 5.198743	 0.063816
C	 -2.933125	 2.035105	 1.717450
H	 -2.717326	 3.115698	 -0.146734
H	 -1.633034	 3.650735	 1.093720
C	 -2.442849	 2.126278	 3.163506
H	 -2.460915	 1.193975	 1.219807
H	 -3.999510	 1.833352	 1.701138
C	 -0.921350	 2.027539	 3.286072
H	 -2.777593	 3.065124	 3.602325
H	 -2.902129	 1.334577	 3.753708
C	 -0.176927	 3.045396	 2.420154
H	 -0.603207	 1.022904	 3.013101
H	 -0.635028	 2.164291	 4.327376
C	 -0.197558	 2.693044	 0.933175
H	 -0.616813	 4.030192	 2.563337
H	 0.854446	 3.120299	 2.758560
H	 -1.215178	 2.643859	 0.556110
H	 0.337293	 3.432959	 0.345671
H	 0.267538	 1.728054	 0.752549
H	 -4.744894	 4.518640	 -0.565967
H	 -4.826996	 5.989572	 0.414927
H	 -3.388670	 5.622899	 -0.548887

9 5 8 12 F

15 11 8 12 F

15 11 14 18 F

1 2 3 6 F

