%nprocshared=1
%mem=2GB
#HF/6-31G* nosymm scf=tight 

Mol

0 1
H	 -2.499100	 -0.730091	 -0.745082
O	 -2.347518	 -0.290803	 0.079804
C	 -1.184022	 0.487508	 -0.006784
C	 0.062599	 -0.378592	 0.031606
H	 -1.176523	 1.099369	 -0.904519
H	 -1.187323	 1.153111	 0.844927
O	 0.382013	 -0.613936	 1.366660
H	 0.886032	 0.127356	 -0.476288
H	 -0.123686	 -1.310692	 -0.498555
C	 1.494589	 -1.428975	 1.559082
H	 2.390344	 -0.988415	 1.125307
H	 1.638948	 -1.538469	 2.624950
H	 1.346575	 -2.413294	 1.119766

1 2 3 5 F

10 7 4 8 F

4 7 10 13 F

