%nprocshared=1
%mem=2GB
#HF/6-31G* nosymm scf=tight 

Mol

0 1
O	 -1.777448	 -1.982990	 -1.147590
C	 -0.789221	 -1.599750	 -0.608816
C	 0.509782	 -2.364855	 -0.522381
O	 -0.698257	 -0.426125	 0.001050
C	 0.450433	 -3.722616	 -1.210805
H	 0.758111	 -2.465764	 0.529948
H	 1.285609	 -1.737687	 -0.951353
H	 -0.313469	 -4.350677	 -0.768812
H	 1.405004	 -4.229938	 -1.120063
H	 0.219104	 -3.616027	 -2.263635
C	 -1.853104	 0.406779	 0.000512
C	 -3.066105	 -0.499277	 -0.000959
H	 -1.828410	 1.043074	 -0.873618
H	 -1.829857	 1.042383	 0.875188
H	 -3.071820	 -1.133106	 -0.880383
H	 -3.972708	 0.097145	 -0.001528
H	 -3.073405	 -1.133813	 0.877999

4 2 3 6 F

11 4 2 3 F

