%nprocshared=1
%mem=2GB
#HF/6-31G* nosymm scf=tight 

Mol

0 1
H	 2.961545	 -2.404034	 -2.534847
C	 2.190400	 -2.780581	 -1.870544
C	 0.980845	 -1.847107	 -1.846764
H	 1.913745	 -3.772768	 -2.215877
H	 2.628846	 -2.885287	 -0.882087
C	 -0.127859	 -2.340084	 -0.922563
H	 0.573415	 -1.735946	 -2.846781
H	 1.297971	 -0.855131	 -1.529265
N	 -1.268658	 -1.446027	 -0.948991
H	 -0.462671	 -3.319079	 -1.254876
H	 0.271365	 -2.476484	 0.088077
C	 -1.217365	 -0.386708	 0.039277
H	 -1.355622	 -1.044301	 -1.863373
C	 -2.452633	 0.504241	 -0.042481
H	 -1.172857	 -0.848333	 1.022069
H	 -0.315698	 0.227728	 -0.054795
C	 -3.758029	 -0.289423	 -0.010781
H	 -2.394220	 1.093569	 -0.952170
H	 -2.440793	 1.210787	 0.785871
H	 -3.816659	 -0.981993	 -0.845726
H	 -4.617837	 0.370165	 -0.069296
H	 -3.847478	 -0.867502	 0.904682

15 12 14 18 F

