%nprocshared=1
%mem=2GB
#HF/6-31G* nosymm scf=tight opt=ModRedundant

Mol

0 1
H	 -1.131000	 -1.374000	 0.166000
O	 -1.483000	 -0.581000	 -0.212000
C	 -0.792000	 0.532000	 0.294000
C	 0.620000	 0.665000	 -0.267000
H	 -1.380000	 1.396000	 0.015000
H	 -0.760000	 0.499000	 1.383000
C	 1.539000	 -0.500000	 0.103000
H	 0.556000	 0.750000	 -1.347000
H	 1.047000	 1.595000	 0.102000
H	 1.180000	 -1.436000	 -0.313000
H	 2.541000	 -0.342000	 -0.280000
H	 1.614000	 -0.617000	 1.182000
