%nprocshared=1
%mem=2GB
#HF/6-31G* nosymm scf=tight 

Mol

0 1
H	 -3.420663	 1.227371	 -1.044276
O	 -3.452007	 0.283848	 -0.965577
C	 -3.181085	 -0.079926	 0.364119
C	 -1.765924	 0.277073	 0.805136
H	 -3.327791	 -1.152017	 0.410903
H	 -3.905698	 0.375695	 1.036898
C	 -0.677594	 -0.417312	 -0.014550
H	 -1.637766	 1.358238	 0.744969
H	 -1.659588	 0.017670	 1.857098
C	 0.738335	 -0.034840	 0.421385
H	 -0.814977	 -0.178223	 -1.064632
H	 -0.802730	 -1.495410	 0.071702
C	 0.869236	 0.124775	 1.938446
H	 1.434164	 -0.791093	 0.065969
H	 1.026982	 0.897268	 -0.062827
C	 0.093880	 1.308430	 2.528310
H	 1.921859	 0.219560	 2.200546
H	 0.519867	 -0.788460	 2.415687
C	 -0.003127	 1.307636	 4.055069
H	 -0.912094	 1.300853	 2.115697
H	 0.550250	 2.238738	 2.195959
H	 -0.444717	 0.383009	 4.417287
H	 -0.624475	 2.127520	 4.402281
H	 0.969136	 1.415979	 4.524250

20 16 13 17 F

17 13 10 7 F

11 7 4 3 F

1 2 3 5 F

7 4 3 2 F

