%nprocshared=1
%mem=2GB
#HF/6-31G* nosymm scf=tight 

Mol

0 1
O	 -0.156818	 -0.756718	 -2.004562
C	 -0.268377	 0.059674	 -1.129484
C	 -1.414320	 1.053720	 -1.157307
N	 0.623947	 0.147590	 -0.102813
H	 -1.053205	 2.075883	 -1.186683
H	 -1.991071	 0.856200	 -2.048032
H	 -2.055243	 0.948038	 -0.288613
C	 1.665360	 -0.855771	 0.000151
C	 0.418288	 0.950543	 1.082605
H	 2.465253	 -0.618490	 -0.692587
H	 1.257730	 -1.821716	 -0.242189
H	 2.081488	 -0.891645	 1.004627
H	 1.378289	 1.295789	 1.447627
H	 -0.183096	 1.820853	 0.873242
H	 -0.059322	 0.383521	 1.879592

8 4 2 3 F

