%nprocshared=1
%mem=2GB
#HF/6-31G* nosymm scf=tight 

Mol

0 1
O	 1.825465	 1.324323	 -0.951462
C	 0.788116	 1.716284	 -1.379704
C	 -0.516134	 0.957269	 -1.353318
O	 0.640172	 2.906476	 -1.947763
C	 -0.823008	 0.326187	 0.001381
H	 -1.299814	 1.647936	 -1.652547
H	 -0.470175	 0.205508	 -2.136556
C	 0.412979	 0.248434	 0.898795
H	 -1.231124	 -0.667927	 -0.151482
H	 -1.601801	 0.899277	 0.494695
C	 1.400887	 -0.835065	 0.462991
H	 0.919110	 1.212687	 0.905384
H	 0.105296	 0.060021	 1.926274
C	 1.822469	 -0.704432	 -1.000039
H	 0.954834	 -1.813881	 0.624532
H	 2.282807	 -0.793530	 1.098309
H	 0.965186	 -0.776863	 -1.663389
H	 2.522581	 -1.485933	 -1.278517
H	 2.303338	 0.251870	 -1.185946
C	 1.792514	 3.724689	 -2.034891
H	 2.180449	 3.940881	 -1.049855
H	 1.472688	 4.634305	 -2.518819
H	 2.560106	 3.239076	 -2.620117

15 11 8 12 F

9 5 8 12 F

1 2 3 6 F

1 2 4 20 F

