%nprocshared=1
%mem=2GB
#HF/6-31G* nosymm scf=tight 

Mol

0 1
O	 -0.682937	 1.318834	 -0.186099
C	 -0.860635	 0.152188	 -0.042321
C	 -2.173363	 -0.477127	 0.338347
O	 0.083258	 -0.765189	 -0.202595
H	 -2.477673	 -1.180929	 -0.427595
H	 -2.923125	 0.290956	 0.455536
H	 -2.058825	 -1.029004	 1.264191
C	 -0.302248	 -2.064933	 -0.644010
C	 -1.142193	 -2.780072	 0.397967
H	 0.581953	 -2.632234	 -0.891996
H	 -0.871562	 -1.887310	 -1.545027
H	 -1.482952	 -3.732720	 0.004172
H	 -0.565617	 -2.969536	 1.294645
H	 -2.012857	 -2.187866	 0.658068

10 8 4 2 F

