%nprocshared=1
%mem=2GB
#HF/6-31G* nosymm scf=tight 

Mol

0 1
H	 5.073928	 -3.792335	 4.134750
C	 4.353717	 -3.334390	 3.480253
C	 3.004446	 -3.616812	 3.631428
C	 4.777482	 -2.463886	 2.488498
H	 2.677137	 -4.292106	 4.400983
C	 2.078995	 -3.027602	 2.789493
H	 5.823818	 -2.246160	 2.372816
C	 3.852884	 -1.872913	 1.644553
H	 1.030952	 -3.234489	 2.891844
C	 2.499879	 -2.153909	 1.793481
H	 4.176354	 -1.198674	 0.875729
C	 1.463013	 -1.545621	 0.912827
O	 1.970282	 -0.730723	 0.000018
O	 0.295913	 -1.762749	 1.010768
C	 3.377318	 -0.566646	 -0.000065
H	 3.695437	 -0.028981	 -0.881264
H	 3.789299	 -1.563704	 0.000236
H	 3.695516	 -0.028316	 0.880770

12 13 15 16 F

13 12 10 6 F

