%nprocshared=1
%mem=2GB
#HF/6-31G* nosymm scf=tight 

Mol

0 1
O	 -1.487788	 1.240889	 -0.102860
C	 -1.083277	 0.139568	 0.115197
C	 0.323299	 -0.082943	 0.642902
C	 -1.933017	 -1.084621	 -0.143902
C	 1.355627	 -0.005344	 -0.493127
H	 0.396251	 -1.044647	 1.143147
H	 0.528637	 0.693580	 1.371677
C	 2.596545	 -0.849700	 -0.209520
H	 0.901177	 -0.333809	 -1.425253
H	 1.638273	 1.032807	 -0.632743
H	 3.311650	 -0.773601	 -1.022247
H	 2.340721	 -1.898531	 -0.089801
H	 3.091581	 -0.522808	 0.699946
H	 -1.393885	 -1.806447	 -0.750509
H	 -2.850323	 -0.799888	 -0.640100
H	 -2.169004	 -1.571158	 0.798858

4 2 3 5 F

