%nprocshared=1
%mem=2GB
#HF/6-31G* nosymm scf=tight 

Mol

0 1
H	 0.520913	 -3.355335	 -0.750069
O	 0.895837	 -2.618051	 -0.278264
C	 0.102382	 -1.563045	 -0.462125
C	 0.624473	 -0.343591	 0.253101
O	 -0.886133	 -1.623171	 -1.118051
C	 -0.265902	 0.883932	 0.072916
H	 0.740303	 -0.614115	 1.297502
H	 1.628992	 -0.158063	 -0.118751
C	 -1.728698	 0.646073	 0.462102
H	 -0.209144	 1.219470	 -0.958188
H	 0.135059	 1.692851	 0.673903
C	 -2.746148	 0.924118	 -0.648053
H	 -1.959702	 1.284789	 1.311479
H	 -1.849449	 -0.377711	 0.813445
C	 -2.360841	 0.270157	 -1.974836
H	 -3.723604	 0.560912	 -0.337078
H	 -2.851809	 1.995018	 -0.800993
H	 -3.095108	 0.482417	 -2.745622
H	 -2.289275	 -0.808947	 -1.873637
H	 -1.398802	 0.632967	 -2.325672

16 12 9 6 F

7 4 6 10 F

5 3 4 7 F

1 2 3 5 F

