%nprocshared=1
%mem=2GB
#HF/6-31G* nosymm scf=tight 

Mol

0 1
H	 -1.222034	 0.982413	 -2.690508
O	 -0.987074	 1.759608	 -2.202027
C	 -0.133416	 1.399416	 -1.155368
C	 -0.795902	 0.595680	 -0.067389
H	 0.247049	 2.326845	 -0.742664
H	 0.728805	 0.849435	 -1.531028
C	 -1.522220	 -0.487727	 -0.255690
H	 -0.643075	 0.970801	 0.932816
H	 -1.071454	 -1.449856	 -0.418625
H	 -2.596511	 -0.445958	 -0.267127

5 3 2 1 F

5 3 4 7 F

