%nprocshared=1
%mem=2GB
#HF/6-31G* nosymm scf=tight 

Mol

0 1
H	 -0.367348	 2.047014	 -0.308205
C	 0.352277	 1.337084	 0.083769
N	 -0.000016	 0.000074	 -0.335546
H	 1.328359	 1.600444	 -0.307950
H	 0.381933	 1.450534	 1.172486
C	 0.202641	 -0.967340	 0.718642
C	 -1.339239	 -0.061595	 -0.874836
H	 -0.003089	 -1.964760	 0.346917
H	 1.234950	 -0.940591	 1.048925
H	 -0.436826	 -0.791526	 1.589878
H	 -1.432476	 0.626109	 -1.707749
H	 -1.541869	 -1.060994	 -1.243051
H	 -2.109388	 0.191312	 -0.138741
