%nprocshared=1
%mem=2GB
#HF/6-31G* nosymm scf=tight 

Mol

0 1
H	 3.729471	 -0.928294	 -0.070608
O	 2.826016	 -1.159218	 0.122261
C	 2.077727	 -0.067559	 -0.035091
C	 0.624473	 -0.343591	 0.253101
O	 2.542965	 0.974826	 -0.363729
C	 -0.265902	 0.883932	 0.072916
H	 0.324016	 -1.163849	 -0.390541
H	 0.565024	 -0.726111	 1.268924
C	 -1.728698	 0.646073	 0.462102
H	 -0.209144	 1.219470	 -0.958188
H	 0.135059	 1.692851	 0.673903
C	 -2.482460	 -0.343073	 -0.431425
H	 -2.245265	 1.602650	 0.432430
H	 -1.779332	 0.308348	 1.496285
C	 -1.713172	 -0.685967	 -1.707002
H	 -2.677049	 -1.255303	 0.128947
H	 -3.453567	 0.061885	 -0.704084
H	 -2.267323	 -1.386307	 -2.324055
H	 -0.752193	 -1.136473	 -1.475933
H	 -1.525875	 0.203118	 -2.302557

7 4 6 10 F

12 9 6 10 F

5 3 4 7 F

1 2 3 5 F

