%nprocshared=24
%mem=2GB
#HF/6-31G* nosymm scf=tight 

Mol

0 1
H	 -4.212968	 -1.711582	 -0.297354
C	 -3.384727	 -1.171869	 0.119184
C	 -2.163829	 -1.430439	 -0.288298
H	 -3.581784	 -0.426637	 0.867755
O	 -1.081000	 -0.797000	 0.234000
H	 -1.946922	 -2.167478	 -1.040597
C	 0.151000	 -0.997000	 -0.369000
C	 1.143000	 0.077000	 0.017000
H	 0.082000	 -1.019000	 -1.451000
H	 0.537000	 -1.944000	 -0.023000
F	 0.942633	 0.429544	 1.278564
F	 2.391066	 -0.347800	 -0.086844
F	 1.021272	 1.154467	 -0.729697

11 8 7 9 F

6 3 2 1 F

6 3 5 7 F

