%nprocshared=1
%mem=2GB
#HF/6-31G* nosymm scf=tight 
prop=(read,field)

Mol

0 1
H	 -0.728255	 -2.089380	 -0.000032
C	 -0.211750	 -1.144419	 -0.000020
N	 1.108495	 -1.211126	 0.000009
C	 -0.938119	 0.037775	 -0.000035
C	 1.784094	 -0.079328	 0.000027
C	 -0.205810	 1.218516	 -0.000014
C	 -2.447535	 0.038652	 0.000004
H	 2.856789	 -0.162474	 0.000042
C	 1.174246	 1.165098	 0.000018
H	 -0.712011	 2.168883	 -0.000022
H	 -2.840355	 0.546612	 -0.875527
H	 -2.838863	 -0.971926	 -0.000716
H	 -2.840263	 0.545248	 0.876338
H	 1.766750	 2.061365	 0.000025

@grid.dat /N
