%nprocshared=1
%mem=2GB
#HF/6-31G* nosymm scf=tight 

Mol

0 1
H	 -2.890773	 0.981721	 0.693131
O	 -2.371207	 1.772071	 0.714788
C	 -3.206676	 2.892173	 0.568441
C	 -4.043243	 3.184327	 1.809218
H	 -2.547413	 3.726788	 0.367281
H	 -3.853208	 2.774398	 -0.300411
C	 -3.245303	 3.170072	 3.115341
H	 -4.520077	 4.152917	 1.683402
H	 -4.839224	 2.443501	 1.863605
C	 -2.745401	 1.771392	 3.487645
H	 -3.866423	 3.558818	 3.917496
H	 -2.391794	 3.842236	 3.025576
C	 -2.087810	 0.996018	 2.340165
H	 -2.044375	 1.850669	 4.316575
H	 -3.587312	 1.190138	 3.857819
C	 -3.034785	 0.600176	 1.203932
H	 -1.288593	 1.608428	 1.927828
H	 -1.608661	 0.102788	 2.738153
C	 -4.465221	 1.099239	 1.418936
H	 -3.044660	 -0.484477	 1.106250
H	 -2.666261	 0.987989	 0.257311
C	 -5.411106	 0.710962	 0.283063
H	 -4.847259	 0.703375	 2.357459
H	 -4.456195	 2.181939	 1.526468
H	 -5.467273	 -0.368187	 0.171231
H	 -6.416738	 1.077069	 0.465559
H	 -5.076338	 1.123259	 -0.664726

14 10 7 4 F

14 10 13 16 F

10 7 4 8 F

8 4 3 2 F

20 16 19 22 F

4 3 2 1 F

