%nprocshared=1
%mem=2GB
#HF/6-31G* nosymm scf=tight 

Mol

0 1
O	 0.387362	 -0.351175	 2.177704
C	 -0.086915	 -0.748479	 1.163512
C	 -1.465879	 -1.332340	 1.021625
O	 0.550821	 -0.724572	 0.000672
H	 -2.039484	 -0.748066	 0.311495
H	 -1.958339	 -1.335151	 1.982545
H	 -1.397299	 -2.342889	 0.636049
C	 1.863949	 -0.193559	 -0.000319
H	 2.028859	 0.409284	 -0.881648
H	 2.526261	 -1.045082	 -0.000003
H	 2.029520	 0.410555	 0.880008

8 4 2 1 F

