%nprocshared=1
%mem=2GB
#HF/6-31G* nosymm scf=tight 

Mol

0 1
O	 -1.276010	 1.052711	 -0.768302
C	 -1.204840	 0.067374	 -0.106123
C	 -2.388195	 -0.672128	 0.458071
O	 -0.067104	 -0.527208	 0.221609
H	 -2.388023	 -1.694060	 0.097175
H	 -3.300579	 -0.174919	 0.164318
H	 -2.315377	 -0.706351	 1.539059
C	 1.170111	 0.034140	 -0.238951
C	 1.074023	 0.068392	 -1.753937
C	 2.334073	 -0.804703	 0.265211
H	 1.245734	 1.037430	 0.153729
H	 0.223960	 0.662121	 -2.070365
H	 1.973291	 0.505154	 -2.175704
H	 0.959106	 -0.933455	 -2.153624
H	 3.272241	 -0.398288	 -0.099048
H	 2.364924	 -0.807567	 1.347346
H	 2.244900	 -1.827455	 -0.086975

8 4 2 1 F

