%nprocshared=1
%mem=2GB
#HF/6-31G* nosymm scf=tight 

Mol

0 1
H	 1.914832	 0.589501	 0.581273
C	 1.068603	 0.648729	 -0.089317
O	 0.000000	 0.000000	 0.521119
H	 0.842749	 1.696793	 -0.279689
H	 1.334278	 0.177185	 -1.034173
C	 -1.165642	 0.000000	 -0.238270
H	 -1.228672	 0.883184	 -0.872070
H	 -2.003012	 0.000000	 0.445920
H	 -1.228672	 -0.883184	 -0.872070
