%nprocshared=1
%mem=2GB
#HF/6-31G* nosymm scf=tight 

Mol

0 1
H	 0.283807	 -5.756808	 -0.370753
C	 0.620719	 -4.745093	 -0.572427
C	 -0.558505	 -3.775595	 -0.639282
H	 1.314416	 -4.465626	 0.215551
H	 1.172841	 -4.761622	 -1.507914
C	 -0.127859	 -2.340084	 -0.922563
H	 -1.111306	 -3.792753	 0.294798
H	 -1.249621	 -4.102419	 -1.414483
N	 -1.268658	 -1.446027	 -0.948991
H	 0.541533	 -2.004628	 -0.134941
H	 0.448755	 -2.307519	 -1.853065
C	 -1.217365	 -0.386708	 0.039277
H	 -1.355622	 -1.044301	 -1.863373
C	 -2.452633	 0.504241	 -0.042481
H	 -1.172857	 -0.848333	 1.022069
H	 -0.315698	 0.227728	 -0.054795
C	 -3.758029	 -0.289423	 -0.010781
H	 -2.394220	 1.093569	 -0.952170
H	 -2.440793	 1.210787	 0.785871
H	 -3.816659	 -0.981993	 -0.845726
H	 -4.617837	 0.370165	 -0.069296
H	 -3.847478	 -0.867502	 0.904682

15 12 14 18 F

