%nprocshared=1
%mem=2GB
#HF/6-31G* nosymm scf=tight 

Mol

0 1
H	 -2.499100	 -0.730091	 -0.745082
O	 -2.347518	 -0.290803	 0.079804
C	 -1.184022	 0.487508	 -0.006784
C	 0.062599	 -0.378592	 0.031606
H	 -1.176523	 1.099369	 -0.904519
H	 -1.187323	 1.153111	 0.844927
O	 0.251327	 -0.803015	 1.344628
H	 0.926278	 0.192445	 -0.314740
H	 -0.059697	 -1.224933	 -0.641694
C	 1.348772	 -1.640205	 1.528661
H	 2.277849	 -1.144666	 1.253187
H	 1.388440	 -1.901158	 2.577104
H	 1.256189	 -2.551306	 0.941196

1 2 3 5 F

10 7 4 8 F

4 7 10 13 F

