%nprocshared=1
%mem=2GB
#HF/6-31G* nosymm scf=tight 

Mol

0 1
H	 -2.095764	 0.435638	 -2.350391
C	 -2.795213	 1.048318	 -1.768139
C	 -2.660244	 0.921717	 -0.272021
O	 -3.583432	 1.744001	 -2.321751
C	 -2.251952	 -0.492116	 0.164590
H	 -1.950708	 1.665482	 0.071608
H	 -3.631493	 1.162906	 0.158280
C	 -3.336007	 -1.544231	 -0.082749
H	 -1.349819	 -0.770642	 -0.371938
H	 -1.984936	 -0.481236	 1.220214
C	 -2.911154	 -2.949982	 0.346413
H	 -3.592451	 -1.549226	 -1.140132
H	 -4.246182	 -1.267727	 0.446087
C	 -3.991482	 -4.002299	 0.082837
H	 -1.996377	 -3.216464	 -0.176944
H	 -2.666602	 -2.944413	 1.407803
C	 -3.643295	 -5.412751	 0.572185
H	 -4.208839	 -4.036023	 -0.983611
H	 -4.911598	 -3.685695	 0.569521
C	 -2.472976	 -6.069390	 -0.161845
H	 -4.522466	 -6.042057	 0.458258
H	 -3.429510	 -5.381491	 1.638600
H	 -2.652113	 -6.099694	 -1.233414
H	 -1.540872	 -5.539301	 0.002964
H	 -2.330111	 -7.090857	 0.177551

6 3 5 8 F

3 5 8 12 F

12 8 11 14 F

8 11 14 18 F

20 17 14 18 F

