%nprocshared=1
%mem=2GB
#HF/6-31G* nosymm scf=tight 

Mol

0 1
H	 1.171006	 0.756959	 0.549206
O	 1.260974	 0.998304	 -0.361863
C	 1.916771	 -0.026765	 -1.059108
C	 1.324828	 -1.385173	 -0.727448
H	 1.884016	 0.133891	 -2.133107
H	 2.953460	 -0.000702	 -0.754072
O	 -0.043959	 -1.331029	 -0.978982
H	 1.512919	 -1.630198	 0.319722
H	 1.806078	 -2.151034	 -1.332790
C	 -0.381609	 -0.813417	 -2.226865
H	 0.366496	 -0.106062	 -2.579876
H	 -0.435693	 -1.641239	 -2.920182
H	 -1.346371	 -0.311084	 -2.200645

8 4 3 5 F

1 2 3 5 F

10 7 4 8 F

