%nprocshared=1
%mem=2GB
#HF/6-31G* nosymm scf=tight 

Mol

0 1
H	 -1.075550	 1.408540	 1.987032
C	 -2.077127	 1.756998	 1.705887
C	 -3.141894	 0.689935	 1.689775
O	 -2.259060	 2.900985	 1.441414
C	 -4.015009	 0.748661	 0.428634
H	 -2.660579	 -0.275260	 1.796744
H	 -3.768155	 0.849752	 2.566651
C	 -4.902224	 1.994114	 0.357958
H	 -3.365394	 0.718683	 -0.441070
H	 -4.633347	 -0.146089	 0.375350
C	 -6.253274	 1.803461	 1.050150
H	 -5.062659	 2.258041	 -0.685331
H	 -4.386047	 2.840886	 0.806374
C	 -7.144331	 3.045428	 0.963640
H	 -6.759475	 0.950440	 0.605350
H	 -6.089580	 1.551128	 2.097010
C	 -8.476090	 2.930578	 1.714174
H	 -7.340708	 3.275648	 -0.082366
H	 -6.595566	 3.895780	 1.362978
C	 -9.441535	 1.892099	 1.140506
H	 -8.962502	 3.902772	 1.700334
H	 -8.281521	 2.704290	 2.760528
H	 -9.641833	 2.084110	 0.089658
H	 -9.050397	 0.883621	 1.223924
H	 -10.390864	 1.916855	 1.666962

6 3 5 8 F

6 3 2 4 F

12 8 11 14 F

8 11 14 18 F

20 17 14 18 F

