%nprocshared=1
%mem=2GB
#HF/6-31G* nosymm scf=tight 

Mol

0 1
H	 2.206950	 -0.603439	 0.525073
C	 1.885229	 -0.441293	 -0.510787
C	 0.609186	 0.344288	 -0.670522
O	 2.530041	 -0.873515	 -1.410526
C	 -0.558097	 -0.297372	 0.091132
H	 0.392058	 0.428260	 -1.728957
H	 0.785609	 1.346711	 -0.282121
C	 -1.850991	 0.512573	 -0.019058
H	 -0.727149	 -1.301244	 -0.291537
H	 -0.291447	 -0.407956	 1.140669
C	 -3.096943	 -0.368295	 -0.099594
H	 -1.800724	 1.150330	 -0.898172
H	 -1.931651	 1.177355	 0.838044
H	 -3.060452	 -1.020287	 -0.967456
H	 -3.996858	 0.233488	 -0.175704
H	 -3.191959	 -0.995686	 0.782074

6 3 5 9 F

4 2 3 6 F

