%nprocshared=1
%mem=2GB
#HF/6-31G* nosymm scf=tight 

Mol

0 1
H	 -2.798360	 -0.862255	 -0.071053
N	 -1.863561	 -0.715187	 0.256814
C	 -1.344686	 0.554728	 -0.219830
H	 -1.300452	 -1.461917	 -0.101532
C	 0.157855	 0.469064	 -0.387656
H	 -1.778522	 0.878495	 -1.166912
H	 -1.566745	 1.319292	 0.518352
O	 0.730076	 0.279798	 0.874814
H	 0.416725	 -0.361273	 -1.044288
H	 0.528732	 1.388093	 -0.836063
C	 2.121991	 0.268429	 0.878558
H	 2.446062	 0.115255	 1.898956
H	 2.515089	 -0.536851	 0.260514
H	 2.528242	 1.210762	 0.516926

8 5 3 6 F

5 8 11 13 F

11 8 5 3 F

