%nprocshared=1
%mem=2GB
#HF/6-31G* nosymm scf=tight 

Mol

0 1
H	 3.445888	 0.449050	 -0.697055
C	 2.734749	 0.237690	 0.093220
C	 1.322923	 0.120767	 -0.479465
H	 3.042759	 -0.683066	 0.578723
H	 2.800494	 1.040232	 0.821366
C	 0.306652	 -0.176050	 0.621399
H	 1.284104	 -0.674585	 -1.216578
H	 1.041039	 1.041301	 -0.976879
N	 -1.068537	 -0.011044	 0.085269
H	 0.372515	 -1.192590	 0.973735
H	 0.391664	 0.520566	 1.441230
O	 -1.656956	 -0.997225	 -0.235017
O	 -1.478635	 1.104830	 -0.018026

12 9 6 3 F

