%nprocshared=1
%mem=2GB
#HF/6-31G* nosymm scf=tight 

Mol

0 1
H	 -2.646374	 -0.642757	 1.268656
C	 -2.083525	 -0.384536	 0.393091
O	 -0.807605	 -0.127164	 0.768327
F	 -2.118945	 -1.383102	 -0.486752
F	 -2.621877	 0.670592	 -0.209486
C	 0.036490	 0.445089	 -0.165867
C	 -0.681772	 1.666376	 -0.725077
Cl	 0.416006	 -0.702564	 -1.460500
H	 0.967064	 0.768546	 0.266777
F	 -1.717658	 1.298845	 -1.448956
F	 0.149575	 2.326910	 -1.506099
F	 -1.093297	 2.474654	 0.221130

10 7 6 9 F

9 6 3 2 F

