%nprocshared=1
%mem=2GB
#HF/6-31G* nosymm scf=tight 

Mol

0 1
H	 2.591676	 2.013956	 0.335017
O	 3.341076	 1.666752	 -0.126416
C	 3.569581	 0.339145	 0.272707
C	 2.539767	 -0.640285	 -0.279495
H	 4.553106	 0.084646	 -0.100901
H	 3.608576	 0.269204	 1.359154
C	 1.115811	 -0.397273	 0.226630
H	 2.556196	 -0.582511	 -1.364741
H	 2.852081	 -1.648031	 -0.010655
C	 0.115918	 -1.429151	 -0.302766
H	 0.797950	 0.599468	 -0.066350
H	 1.109961	 -0.420744	 1.316472
C	 0.466901	 -2.887457	 0.014247
H	 -0.873561	 -1.203467	 0.090738
H	 0.044388	 -1.319288	 -1.382819
C	 0.415902	 -3.254264	 1.499956
H	 -0.225106	 -3.530570	 -0.525519
H	 1.457090	 -3.112477	 -0.379108
C	 0.669680	 -4.741392	 1.755858
H	 -0.558415	 -2.982450	 1.903606
H	 1.148431	 -2.672657	 2.054427
C	 0.625686	 -5.109055	 3.238610
H	 -0.068704	 -5.330563	 1.216271
H	 1.638590	 -5.017021	 1.344609
H	 -0.342786	 -4.875475	 3.671883
H	 0.807097	 -6.169106	 3.386989
H	 1.378241	 -4.563215	 3.800823

14 10 13 16 F

10 7 4 8 F

8 4 3 2 F

10 13 16 20 F

20 16 19 22 F

4 3 2 1 F

