%nprocshared=1
%mem=2GB
#HF/6-31G* nosymm scf=tight 

Mol

0 1
H	 -2.465822	 -2.002325	 1.173260
C	 -1.923175	 -1.215362	 0.683771
C	 -2.587726	 -0.151779	 0.097163
C	 -0.546282	 -1.254673	 0.633066
H	 -3.661370	 -0.102878	 0.126151
C	 -1.876363	 0.854210	 -0.529477
H	 -0.002909	 -2.062540	 1.076770
C	 0.154804	 -0.237046	 -0.000077
H	 -2.410467	 1.671039	 -0.978497
C	 -0.484873	 0.851415	 -0.602651
N	 1.611208	 -0.370857	 -0.000034
C	 0.190348	 2.004019	 -1.312940
O	 2.274126	 0.622059	 -0.008063
O	 2.068510	 -1.474748	 0.007823
H	 0.775902	 1.663385	 -2.155689
H	 -0.565753	 2.691608	 -1.670582
H	 0.861487	 2.538303	 -0.654734
