%nprocshared=1
%mem=2GB
#HF/6-31G* nosymm scf=tight 

Mol

0 1
H	 -2.240291	 0.559484	 0.604969
C	 -2.008299	 -0.205926	 -0.129530
O	 -0.774054	 0.001095	 -0.743181
H	 -2.752932	 -0.160639	 -0.912984
H	 -2.076115	 -1.178578	 0.348530
C	 -0.520590	 1.222591	 -1.414175
C	 0.976003	 1.166795	 -1.712687
C	 -1.311586	 1.308306	 -2.723437
C	 -0.829324	 2.422663	 -0.513271
H	 1.201904	 0.303346	 -2.328200
H	 1.537702	 1.078299	 -0.789628
H	 1.304202	 2.060079	 -2.234214
H	 -1.142254	 0.420237	 -3.323179
H	 -0.995698	 2.173244	 -3.297629
H	 -2.378141	 1.405646	 -2.551564
H	 -0.320934	 2.317681	 0.439393
H	 -0.490512	 3.341127	 -0.981419
H	 -1.891946	 2.528947	 -0.323088

2 3 6 7 F

