%nprocshared=1
%mem=2GB
#HF/6-31G* nosymm scf=tight 

Mol

0 1
H	 0.102327	 -0.063552	 0.301824
N	 -0.626943	 -0.667432	 -0.000092
C	 -1.979713	 -0.158776	 0.000050
C	 -0.302505	 -1.923377	 -0.391890
H	 -2.520245	 -0.492427	 -0.879443
H	 -1.934741	 0.918111	 -0.004428
H	 -2.517790	 -0.485056	 0.883818
C	 1.176220	 -2.245664	 -0.311324
O	 -1.112171	 -2.723148	 -0.772709
H	 1.534907	 -2.144853	 0.708252
H	 1.331166	 -3.260528	 -0.645600
H	 1.750484	 -1.569773	 -0.937206

3 2 4 9 F

