%nprocshared=1
%mem=2GB
#HF/6-31G* nosymm scf=tight 

Mol

0 1
H	 -3.161837	 0.500524	 -0.000234
C	 -2.367097	 -0.232926	 -0.000000
O	 -1.158440	 0.455814	 -0.000122
H	 -2.468853	 -0.861886	 -0.882833
H	 -2.468942	 -0.861421	 0.883154
C	 -1.058687	 1.440634	 0.983775
C	 0.300233	 2.109559	 0.871797
H	 -1.182068	 0.997128	 1.972703
H	 -1.854304	 2.176601	 0.860266
C	 0.300666	 3.268940	 -0.123550
H	 0.593248	 2.460667	 1.856442
H	 1.029102	 1.361126	 0.576335
H	 -0.405676	 4.041497	 0.167417
H	 1.282093	 3.727224	 -0.183734
H	 0.032550	 2.934260	 -1.121801

6 3 2 4 F

8 6 3 2 F

