%nprocshared=1
%mem=2GB
#HF/6-31G* nosymm scf=tight 

Mol

0 1
H	 -2.368726	 1.517241	 2.403154
C	 -2.015730	 0.491554	 2.316546
O	 -0.724844	 0.439452	 1.800566
H	 -1.991611	 0.045361	 3.301163
H	 -2.717980	 -0.063752	 1.696135
C	 -0.599664	 0.977001	 0.522044
C	 0.855189	 0.964506	 0.115286
H	 -1.176896	 0.389718	 -0.193216
H	 -0.971070	 1.999386	 0.493921
O	 1.392611	 -0.295398	 0.366430
H	 0.934499	 1.215727	 -0.940463
H	 1.392713	 1.724912	 0.683215
C	 2.706965	 -0.449871	 -0.062409
H	 2.756559	 -0.644779	 -1.131878
H	 3.305899	 0.433456	 0.155466
H	 3.125548	 -1.294566	 0.467107

3 6 7 11 F

2 3 6 7 F

