%nprocshared=1
%mem=2GB
#HF/6-31G* nosymm scf=tight 

Mol

0 1
H	 0.567018	 -0.302220	 -2.200024
O	 0.660511	 0.624019	 -2.023408
C	 0.574433	 0.836068	 -0.644427
C	 -0.795902	 0.595680	 -0.067389
H	 0.863591	 1.867596	 -0.478471
H	 1.299008	 0.220582	 -0.112269
C	 -1.522220	 -0.487727	 -0.255690
H	 -1.181067	 1.399618	 0.540735
H	 -1.071454	 -1.449856	 -0.418625
H	 -2.596511	 -0.445958	 -0.267127

5 3 2 1 F

5 3 4 7 F

