%nprocshared=1
%mem=2GB
#HF/6-31G* nosymm scf=tight 

Mol

0 1
H	 -3.161837	 0.500524	 -0.000234
C	 -2.367097	 -0.232926	 -0.000000
O	 -1.158440	 0.455814	 -0.000122
H	 -2.468853	 -0.861886	 -0.882833
H	 -2.468942	 -0.861421	 0.883154
C	 -0.451186	 0.374156	 -1.200538
C	 0.838714	 1.164246	 -1.064237
H	 -1.053547	 0.770882	 -2.018871
H	 -0.233535	 -0.668063	 -1.437846
C	 1.681916	 1.130791	 -2.338118
H	 0.589138	 2.188950	 -0.806644
H	 1.403483	 0.760085	 -0.229738
H	 1.143119	 1.553873	 -3.181399
H	 2.595808	 1.701671	 -2.212642
H	 1.962716	 0.114660	 -2.600860

11 7 6 8 F

8 6 3 2 F

