%nprocshared=1
%mem=2GB
#HF/6-31G* nosymm scf=tight 

Mol

0 1
O	 3.225979	 0.970355	 -0.599647
C	 2.701189	 0.057885	 -0.047330
C	 1.245376	 -0.013843	 0.345420
O	 3.347903	 -1.046386	 0.304773
C	 0.455112	 1.231400	 -0.050772
H	 0.838542	 -0.913825	 -0.103701
H	 1.208210	 -0.175333	 1.419774
C	 -0.998893	 1.219485	 0.433193
H	 0.482531	 1.345121	 -1.130325
H	 0.957290	 2.103070	 0.354729
C	 -1.883438	 0.145884	 -0.207175
H	 -1.431207	 2.195402	 0.224832
H	 -1.019646	 1.105716	 1.516076
C	 -3.358182	 0.548844	 -0.268442
H	 -1.524609	 -0.059000	 -1.214689
H	 -1.797309	 -0.788035	 0.343598
C	 -4.023914	 0.622950	 1.106854
H	 -3.899626	 -0.161413	 -0.891025
H	 -3.447205	 1.515244	 -0.762248
C	 -3.200441	 1.407424	 2.127733
H	 -5.005725	 1.080932	 1.007141
H	 -4.194303	 -0.385003	 1.479386
H	 -3.698118	 1.442190	 3.091950
H	 -3.042120	 2.431091	 1.800266
H	 -2.224255	 0.954140	 2.275613
C	 4.728119	 -1.109107	 -0.004993
H	 4.882018	 -1.033965	 -1.071845
H	 5.068212	 -2.067527	 0.355250
H	 5.265056	 -0.311663	 0.488280

21 17 14 11 F

17 14 11 15 F

6 3 5 9 F

11 8 5 9 F

2 4 26 27 F

1 2 4 26 F

6 3 2 1 F

