%nprocshared=1
%mem=2GB
#HF/6-31G* nosymm scf=tight 

Mol

0 1
H	 1.352826	 -2.121174	 -0.666602
C	 0.411473	 -1.614055	 -0.803497
O	 0.464886	 -0.454746	 -0.000158
H	 -0.395426	 -2.266766	 -0.492197
H	 0.291529	 -1.357951	 -1.849483
C	 -0.590998	 0.343045	 0.000118
O	 -1.699443	 -0.054298	 0.000227
H	 -0.340329	 1.404368	 0.000207
