%nprocshared=1
%mem=2GB
#HF/6-31G* nosymm scf=tight 

Mol

0 1
H	 2.591676	 2.013956	 0.335017
O	 3.341076	 1.666752	 -0.126416
C	 3.569581	 0.339145	 0.272707
C	 2.539767	 -0.640285	 -0.279495
H	 4.553106	 0.084646	 -0.100901
H	 3.608576	 0.269204	 1.359154
C	 1.115811	 -0.397273	 0.226630
H	 2.556196	 -0.582511	 -1.364741
H	 2.852081	 -1.648031	 -0.010655
C	 0.115918	 -1.429151	 -0.302766
H	 0.797950	 0.599468	 -0.066350
H	 1.109961	 -0.420744	 1.316472
C	 0.633807	 -2.293924	 -1.457885
H	 -0.200452	 -2.073597	 0.515431
H	 -0.776845	 -0.905539	 -0.638182
C	 1.776497	 -3.244196	 -1.089483
H	 -0.196255	 -2.882741	 -1.842733
H	 0.950711	 -1.648684	 -2.275855
C	 2.187113	 -4.159031	 -2.245298
H	 1.475868	 -3.854436	 -0.238989
H	 2.645456	 -2.676664	 -0.765258
C	 3.331883	 -5.104186	 -1.882192
H	 1.326412	 -4.741858	 -2.566226
H	 2.478570	 -3.551059	 -3.099294
H	 3.059402	 -5.748972	 -1.051392
H	 3.598292	 -5.740316	 -2.720643
H	 4.220627	 -4.550834	 -1.591846

14 10 13 16 F

10 7 4 8 F

8 4 3 2 F

10 13 16 20 F

20 16 19 22 F

4 3 2 1 F

