%nprocshared=1
%mem=2GB
#HF/6-31G* nosymm scf=tight 

Mol

0 1
H	 -3.161837	 0.500524	 -0.000234
C	 -2.367097	 -0.232926	 -0.000000
O	 -1.158440	 0.455814	 -0.000122
H	 -2.468853	 -0.861886	 -0.882833
H	 -2.468942	 -0.861421	 0.883154
C	 -1.058687	 1.440634	 0.983775
C	 -1.114124	 2.805074	 0.319025
H	 -0.125042	 1.326208	 1.536146
H	 -1.872223	 1.336514	 1.702959
C	 0.173157	 3.141893	 -0.432203
H	 -1.960446	 2.822660	 -0.360747
H	 -1.309636	 3.552160	 1.082135
H	 0.374554	 2.418781	 -1.217679
H	 0.106116	 4.120281	 -0.896000
H	 1.030247	 3.152780	 0.235391

6 3 2 4 F

11 7 6 8 F

