%nprocshared=1
%mem=2GB
#HF/6-31G* nosymm scf=tight 

Mol

0 1
O	 1.559986	 -0.272925	 0.530578
C	 0.576249	 0.131685	 -0.000108
C	 -0.766779	 -0.556801	 -0.000461
O	 0.532693	 1.271439	 -0.678140
C	 -1.945214	 0.412366	 0.000161
H	 -0.796911	 -1.211249	 -0.867467
H	 -0.796854	 -1.212390	 0.865687
C	 -3.287791	 -0.317055	 0.000105
H	 -1.876087	 1.060580	 -0.866812
H	 -1.875822	 1.059691	 0.867761
H	 -3.394745	 -0.949193	 -0.877058
H	 -4.111778	 0.388953	 0.000015
H	 -3.394954	 -0.949187	 0.877259
C	 1.732532	 2.019518	 -0.755420
H	 2.067117	 2.304071	 0.231810
H	 1.496342	 2.896599	 -1.337494
H	 2.507937	 1.445040	 -1.241457

9 5 3 6 F

14 4 2 1 F

