%nprocshared=1
%mem=2GB
#HF/6-31G* nosymm scf=tight 

Mol

0 1
H	 -2.499100	 -0.730091	 -0.745082
O	 -2.347518	 -0.290803	 0.079804
C	 -1.184022	 0.487508	 -0.006784
C	 0.062599	 -0.378592	 0.031606
H	 -1.176523	 1.099369	 -0.904519
H	 -1.187323	 1.153111	 0.844927
O	 -0.255413	 -1.561185	 0.695023
H	 0.867893	 0.146688	 0.548872
H	 0.401709	 -0.575965	 -0.983595
C	 0.791450	 -2.475625	 0.778810
H	 1.638176	 -2.062258	 1.323616
H	 0.424869	 -3.344335	 1.307831
H	 1.132031	 -2.780969	 -0.208388

1 2 3 5 F

10 7 4 8 F

4 7 10 13 F

