%nprocshared=1
%mem=2GB
#HF/6-31G* nosymm scf=tight 

Mol

0 1
H	 -0.905015	 2.434068	 0.005303
C	 -0.784059	 1.368813	 0.002846
C	 -1.912272	 0.483010	 -0.000595
C	 0.436865	 0.818574	 0.002913
H	 -2.906158	 0.894390	 -0.000721
C	 -1.735928	 -0.846034	 -0.003650
H	 1.331825	 1.411401	 0.005370
N	 0.640212	 -0.532897	 -0.000111
H	 -2.555010	 -1.538458	 -0.006287
C	 -0.407252	 -1.444535	 -0.003623
C	 2.010177	 -1.032049	 0.000042
O	 -0.206531	 -2.633614	 -0.006418
H	 2.187698	 -1.635381	 -0.882279
H	 2.677579	 -0.189247	 -0.001871
H	 2.188882	 -1.632203	 0.884288
