%nprocshared=1
%mem=2GB
#HF/6-31G* nosymm scf=tight 

Mol

0 1
H	 2.332609	 0.878551	 -1.051851
C	 2.357710	 0.000000	 -0.417167
C	 1.175432	 0.000000	 0.532082
H	 3.291263	 0.000000	 0.136880
H	 2.332609	 -0.878551	 -1.051851
O	 0.000000	 0.000000	 -0.221444
H	 1.206604	 0.877321	 1.177902
H	 1.206604	 -0.877321	 1.177902
C	 -1.175432	 0.000000	 0.532082
C	 -1.981399	 1.232094	 0.169843
H	 -0.938649	 0.000000	 1.595887
H	 -1.750466	 -0.903358	 0.329527
H	 -1.413464	 2.130857	 0.381931
H	 -2.905161	 1.264152	 0.739164
H	 -2.226419	 1.226232	 -0.886204
