%nprocshared=24
%mem=2GB
#HF/6-31G* nosymm scf=tight 

Mol

0 1
H	 -2.463887	 -1.404751	 3.174456
C	 -2.393282	 -1.145213	 2.135980
C	 -1.224516	 -1.150904	 1.538115
H	 -3.292956	 -0.884230	 1.609638
O	 -1.107922	 -1.202562	 0.185230
H	 -0.296187	 -1.095851	 2.077934
C	 0.154356	 -1.381848	 -0.358776
C	 0.952835	 -0.097739	 -0.353091
H	 0.115808	 -1.750317	 -1.377949
H	 0.677977	 -2.100007	 0.254080
F	 0.668515	 0.593507	 0.741130
F	 2.254800	 -0.329672	 -0.353402
F	 0.678868	 0.659904	 -1.394354

11 8 7 9 F

3 5 7 9 F

6 3 5 7 F

