%nprocshared=1
%mem=2GB
#HF/6-31G* nosymm scf=tight 

Mol

0 1
O	 -0.806752	 -1.114546	 1.082146
C	 -0.561929	 -0.074560	 0.531515
C	 -1.597472	 1.034011	 0.503089
N	 0.623947	 0.147590	 -0.102813
H	 -1.868528	 1.298769	 -0.513038
H	 -2.472791	 0.671041	 1.019920
H	 -1.237628	 1.928840	 0.999450
C	 0.919875	 1.486638	 -0.573191
C	 1.458454	 -0.899509	 -0.650012
H	 1.955734	 1.537424	 -0.890103
H	 0.755090	 2.191026	 0.223442
H	 0.289632	 1.757035	 -1.417643
H	 2.495936	 -0.592421	 -0.591993
H	 1.358730	 -1.818072	 -0.093925
H	 1.226052	 -1.100270	 -1.694280

2 4 8 10 F

