%nprocshared=1
%mem=2GB
#HF/6-31G* nosymm scf=tight 

Mol

0 1
H	 2.465915	 -1.403495	 -1.014452
N	 1.481870	 -1.223157	 -1.036688
C	 1.224368	 0.201193	 -0.928836
C	 0.806026	 -1.965611	 0.011505
H	 1.731935	 0.712955	 -1.739542
H	 1.585005	 0.620822	 0.013232
C	 -0.273766	 0.445785	 -1.029827
H	 1.010639	 -3.023000	 -0.118226
H	 1.141325	 -1.677217	 1.010526
C	 -0.691849	 -1.719676	 -0.090069
H	 -0.614349	 0.165873	 -2.031202
H	 -0.479102	 1.502650	 -0.894103
N	 -0.975995	 -0.298722	 0.000000
H	 -1.199111	 -2.226634	 0.724318
H	 -1.060441	 -2.144666	 -1.028483
C	 -2.393863	 -0.024976	 0.000000
H	 -2.854032	 -0.467193	 -0.876721
H	 -2.854032	 -0.467193	 0.876721
H	 -2.623281	 1.044943	 0.000000
