%nprocshared=1
%mem=2GB
#HF/6-31G* nosymm scf=tight 

Mol

0 1
H	 2.505165	 -5.534769	 1.578366
C	 2.373219	 -4.517746	 1.256924
C	 1.135345	 -4.076658	 0.801583
C	 3.428498	 -3.629613	 1.289433
H	 0.301378	 -4.755100	 0.769299
C	 0.962370	 -2.773306	 0.388604
H	 4.393170	 -3.953036	 1.638563
C	 3.270498	 -2.311012	 0.876171
H	 0.011847	 -2.419586	 0.034736
C	 2.032527	 -1.881839	 0.424156
H	 4.110199	 -1.644539	 0.913357
O	 1.765256	 -0.628444	 0.000000
C	 2.778419	 0.335181	 0.000000
H	 2.731280	 0.961222	 -0.884976
H	 3.711703	 -0.207767	 0.000000
H	 2.731280	 0.961222	 0.884976

13 12 10 8 F

