%nprocshared=1
%mem=2GB
#HF/6-31G* nosymm scf=tight 

Mol

0 1
O	 -1.276010	 1.052711	 -0.768302
C	 -1.204840	 0.067374	 -0.106123
C	 -2.388195	 -0.672128	 0.458071
O	 -0.067104	 -0.527208	 0.221609
H	 -2.388023	 -1.694060	 0.097175
H	 -3.300579	 -0.174919	 0.164318
H	 -2.315377	 -0.706351	 1.539059
C	 1.170111	 0.034140	 -0.238951
C	 1.300499	 -0.381266	 -1.693608
C	 2.315233	 -0.465467	 0.628074
H	 1.095707	 1.108886	 -0.162198
H	 0.458092	 -0.019442	 -2.272125
H	 2.210293	 0.029022	 -2.119366
H	 1.337142	 -1.461771	 -1.782028
H	 3.257384	 -0.062386	 0.270450
H	 2.182966	 -0.153169	 1.656155
H	 2.371941	 -1.548808	 0.593925

8 4 2 1 F

