%nprocshared=1
%mem=2GB
#HF/6-31G* nosymm scf=tight 

Mol

0 1
H	 2.522670	 -1.109532	 1.094674
N	 1.539869	 -0.922750	 1.118669
C	 0.815145	 -1.918375	 0.350412
C	 1.266569	 0.419777	 0.639462
H	 1.034087	 -2.901550	 0.753152
H	 1.095145	 -1.916411	 -0.705636
C	 -0.677053	 -1.643038	 0.459793
H	 1.812423	 1.129841	 1.251526
H	 1.573910	 0.563356	 -0.399080
C	 -0.225908	 0.693666	 0.748664
H	 -0.992490	 -1.792713	 1.496709
H	 -1.222830	 -2.349488	 -0.157136
N	 -0.975995	 -0.298722	 0.000000
H	 -0.445884	 1.674703	 0.340348
H	 -0.511121	 0.700541	 1.804933
C	 -2.393863	 -0.024976	 0.000000
H	 -2.854032	 -0.467193	 -0.876721
H	 -2.854032	 -0.467193	 0.876721
H	 -2.623281	 1.044943	 0.000000
