%nprocshared=1
%mem=2GB
#HF/6-31G* nosymm scf=tight 

Mol

0 1
O	 0.391030	 1.298905	 0.000133
C	 0.503002	 0.111612	 0.000005
C	 -0.702327	 -0.811998	 -0.000075
C	 1.863306	 -0.554493	 0.000030
C	 -1.967109	 -0.165327	 0.551554
H	 -0.857965	 -1.157779	 -1.020361
H	 -0.441696	 -1.701171	 0.571071
H	 -2.243018	 0.705718	 -0.030147
H	 -2.792673	 -0.868967	 0.527237
H	 -1.823060	 0.157507	 1.575394
H	 1.974395	 -1.189404	 -0.874166
H	 2.638695	 0.198920	 -0.000196
H	 1.974487	 -1.188655	 0.874727
