%nprocshared=1
%mem=2GB
#HF/6-31G* nosymm scf=tight 

Mol

0 1
O	 1.056818	 1.450143	 -0.660979
C	 0.140502	 1.681556	 -1.381988
C	 -0.939865	 0.702126	 -1.771111
O	 -0.054281	 2.863688	 -1.952602
C	 -1.511208	 -0.072203	 -0.587336
H	 -1.715462	 1.262145	 -2.286457
H	 -0.517354	 0.030752	 -2.513739
C	 -1.991147	 0.850690	 0.533955
H	 -0.756112	 -0.752662	 -0.206138
H	 -2.332686	 -0.694292	 -0.928922
C	 -0.837565	 1.474879	 1.317946
H	 -2.610666	 1.640732	 0.114304
H	 -2.629762	 0.292616	 1.215713
H	 -0.199460	 2.068260	 0.669582
H	 -1.204845	 2.124492	 2.106226
H	 -0.219070	 0.710549	 1.779361
C	 1.065166	 3.726192	 -2.042424
H	 1.444631	 3.960080	 -1.058153
H	 0.709774	 4.621320	 -2.528624
H	 1.850932	 3.269393	 -2.626729

9 5 8 12 F

1 2 3 6 F

9 5 3 6 F

