%nprocshared=1
%mem=2GB
#HF/6-31G* nosymm scf=tight 

Mol

0 1
H	 -0.821032	 -1.655889	 0.000000
O	 -1.037828	 -0.728600	 0.000000
C	 0.100509	 -0.036935	 0.000000
C	 0.825857	 -0.154113	 1.309978
O	 0.465591	 0.586156	 -0.942176
H	 0.192784	 0.209714	 2.110955
H	 1.740014	 0.418469	 1.269754
H	 1.046743	 -1.195724	 1.512392
