%nprocshared=1
%mem=2GB
#HF/6-31G* nosymm scf=tight 

Mol

0 1
O	 -1.276010	 1.052711	 -0.768302
C	 -1.204840	 0.067374	 -0.106123
C	 -2.388195	 -0.672128	 0.458071
O	 -0.067104	 -0.527208	 0.221609
H	 -2.388023	 -1.694060	 0.097175
H	 -3.300579	 -0.174919	 0.164318
H	 -2.315377	 -0.706351	 1.539059
C	 1.170111	 0.034140	 -0.238951
C	 1.504738	 1.155706	 0.728366
C	 1.014657	 0.512068	 -1.674244
H	 1.923280	 -0.738463	 -0.190687
H	 1.590816	 0.775843	 1.740068
H	 2.447734	 1.617013	 0.453981
H	 0.732876	 1.917722	 0.713770
H	 1.940946	 0.958933	 -2.021109
H	 0.772280	 -0.314480	 -2.330024
H	 0.228837	 1.257603	 -1.742595

8 4 2 1 F

