%nprocshared=1
%mem=2GB
#HF/6-31G* nosymm scf=tight 

Mol

0 1
H	 -2.798360	 -0.862255	 -0.071053
N	 -1.863561	 -0.715187	 0.256814
C	 -1.344686	 0.554728	 -0.219830
H	 -1.300452	 -1.461917	 -0.101532
C	 0.081427	 0.741154	 0.254071
H	 -1.362155	 0.656231	 -1.305829
H	 -1.952773	 1.354456	 0.191809
O	 0.941013	 0.302304	 -0.758652
H	 0.270183	 1.791197	 0.476376
H	 0.243257	 0.164878	 1.162339
C	 2.291059	 0.338043	 -0.421505
H	 2.851783	 -0.019236	 -1.274522
H	 2.615928	 1.350069	 -0.186461
H	 2.504352	 -0.300174	 0.433477

6 3 2 4 F

5 8 11 13 F

11 8 5 3 F

