%nprocshared=1
%mem=2GB
#HF/6-31G* nosymm scf=tight 

Mol

0 1
H	 2.694096	 -0.591518	 -1.007991
O	 1.920007	 -0.972041	 -0.604538
C	 0.951741	 -0.056743	 -0.622498
C	 -0.318135	 -0.576402	 0.000164
O	 1.113519	 1.025921	 -1.083653
C	 -1.454360	 0.441875	 -0.000474
H	 -0.597052	 -1.478799	 -0.537320
H	 -0.076405	 -0.896767	 1.010083
C	 -2.826123	 -0.230780	 0.000056
H	 -1.357605	 1.085198	 -0.868380
H	 -1.357504	 1.086451	 0.866496
H	 -2.959731	 -0.858053	 -0.876869
H	 -3.619374	 0.509403	 -0.000080
H	 -2.959371	 -0.857318	 0.877556

2 3 4 7 F

1 2 3 5 F

