%nprocshared=1
%mem=2GB
#HF/6-31G* nosymm scf=tight 

Mol

0 1
H	 2.866480	 -0.465706	 0.876907
C	 2.405773	 -0.024801	 0.000000
N	 0.988830	 -0.304158	 0.000000
H	 2.866480	 -0.465706	 -0.876907
H	 2.629928	 1.045948	 0.000000
C	 0.186450	 0.905038	 -0.000000
C	 0.597234	 -1.178522	 1.090004
H	 0.367953	 1.508710	 0.895062
H	 0.452021	 1.507012	 -0.863334
C	 -1.288068	 0.542775	 -0.067465
H	 1.163599	 -2.102225	 1.024820
H	 0.808670	 -0.726678	 2.064494
C	 -0.888178	 -1.485532	 0.993634
H	 -1.904422	 1.427792	 0.021234
H	 -1.502914	 0.064087	 -1.021231
O	 -1.643577	 -0.306855	 0.986905
H	 -1.216094	 -2.063517	 1.847695
H	 -1.084209	 -2.059649	 0.089791
