%nprocshared=1
%mem=2GB
#HF/6-31G* nosymm scf=tight 

Mol

0 1
H	 -3.135461	 -1.215070	 0.001379
O	 -2.310168	 -0.871793	 -0.309793
C	 -2.026376	 0.340750	 0.341611
C	 -0.673256	 0.843270	 -0.132153
H	 -2.792215	 1.080697	 0.115987
H	 -2.013526	 0.200402	 1.421792
C	 0.486613	 -0.083066	 0.235839
H	 -0.715586	 0.970948	 -1.210718
H	 -0.508072	 1.829858	 0.297090
C	 0.071027	 -1.211879	 1.180764
H	 1.278018	 0.502220	 0.692602
H	 0.904565	 -0.512788	 -0.673829
C	 -0.170068	 -0.732161	 2.611643
H	 -0.833588	 -1.682872	 0.801875
H	 0.838087	 -1.983923	 1.184058
H	 -0.956760	 0.016061	 2.645815
H	 -0.465423	 -1.552913	 3.258232
H	 0.727088	 -0.286276	 3.032131

14 10 7 11 F

2 3 4 8 F

1 2 3 4 F

