%nprocshared=1
%mem=2GB
#HF/6-31G* nosymm scf=tight 

Mol

0 1
H	 -3.247043	 -0.075164	 0.284792
C	 -2.503250	 0.518326	 0.812696
O	 -1.215762	 0.230658	 0.371155
H	 -2.688463	 1.565626	 0.617756
H	 -2.610747	 0.335306	 1.881048
C	 -0.829279	 -1.093231	 0.564017
C	 0.534113	 -1.309904	 -0.049515
H	 -0.783431	 -1.322350	 1.629427
H	 -1.541752	 -1.775329	 0.104530
O	 1.392611	 -0.295398	 0.366430
H	 0.912140	 -2.284710	 0.251908
H	 0.442800	 -1.306009	 -1.136410
C	 2.706965	 -0.449871	 -0.062409
H	 2.756559	 -0.644779	 -1.131878
H	 3.305899	 0.433456	 0.155466
H	 3.125548	 -1.294566	 0.467107

3 6 7 11 F

2 3 6 7 F

