%nprocshared=1
%mem=2GB
#HF/6-31G* nosymm scf=tight 

Mol

0 1
O	 -2.324811	 1.361668	 -0.277141
C	 -2.105949	 0.203097	 -0.092081
C	 -0.889235	 -0.467034	 -0.705952
C	 -3.002726	 -0.644460	 0.782455
C	 -0.687046	 -1.875326	 -0.123734
H	 -0.024989	 0.146810	 -0.476652
H	 -0.987764	 -0.522504	 -1.786341
C	 0.551649	 -2.567320	 -0.697661
H	 -0.610484	 -1.787786	 0.954162
H	 -1.565304	 -2.485809	 -0.327987
C	 0.761624	 -4.002922	 -0.202674
H	 1.433738	 -1.974125	 -0.463643
H	 0.473593	 -2.582782	 -1.782796
C	 1.076093	 -4.119757	 1.289792
H	 1.579433	 -4.442959	 -0.767696
H	 -0.120597	 -4.595992	 -0.435143
H	 1.948529	 -3.527553	 1.552231
H	 1.284384	 -5.150582	 1.558891
H	 0.250224	 -3.783500	 1.907580
H	 -3.496582	 -1.399307	 0.176174
H	 -3.747939	 -0.023774	 1.260148
H	 -2.421318	 -1.168775	 1.535358

6 3 5 8 F

3 5 8 12 F

12 8 11 15 F

