%nprocshared=1
%mem=2GB
#HF/6-31G* nosymm scf=tight 

Mol

0 1
H	 -3.161837	 0.500524	 -0.000234
C	 -2.367097	 -0.232926	 -0.000000
O	 -1.158440	 0.455814	 -0.000122
H	 -2.468853	 -0.861886	 -0.882833
H	 -2.468942	 -0.861421	 0.883154
C	 -1.058687	 1.440634	 0.983775
C	 -0.686069	 0.782002	 2.300597
H	 -2.006583	 1.971636	 1.080874
H	 -0.305125	 2.177429	 0.702372
C	 -1.848872	 0.003404	 2.914237
H	 0.158039	 0.121349	 2.128313
H	 -0.346456	 1.551860	 2.986659
H	 -2.188382	 -0.788863	 2.252821
H	 -1.555374	 -0.455401	 3.852428
H	 -2.696864	 0.651739	 3.116656

6 3 2 4 F

11 7 6 8 F

