%nprocshared=1
%mem=2GB
#HF/6-31G* nosymm scf=tight 

Mol

0 1
H	 -3.161837	 0.500524	 -0.000234
C	 -2.367097	 -0.232926	 -0.000000
O	 -1.158440	 0.455814	 -0.000122
H	 -2.468853	 -0.861886	 -0.882833
H	 -2.468942	 -0.861421	 0.883154
C	 -1.058687	 1.440634	 0.983775
C	 0.351949	 1.430249	 1.546501
H	 -1.784070	 1.253859	 1.776765
H	 -1.290281	 2.418955	 0.560501
C	 0.613744	 0.222519	 2.445241
H	 1.053220	 1.439892	 0.717774
H	 0.508555	 2.350916	 2.100167
H	 0.485987	 -0.710261	 1.903002
H	 1.626740	 0.240759	 2.832992
H	 -0.063095	 0.206811	 3.294974

6 3 2 4 F

11 7 6 8 F

