%nprocshared=1
%mem=2GB
#HF/6-31G* nosymm scf=tight 

Mol

0 1
H	 -3.033345	 -4.009066	 -0.564138
C	 -2.126627	 -3.507628	 -0.275684
C	 -1.576784	 -3.739309	 0.976173
C	 -1.511695	 -2.631983	 -1.156614
H	 -2.054699	 -4.418652	 1.658417
C	 -0.410906	 -3.094189	 1.346351
H	 -1.939385	 -2.453638	 -2.126604
C	 -0.344569	 -1.985089	 -0.788215
H	 0.028759	 -3.261330	 2.310939
C	 0.209020	 -2.215146	 0.465729
H	 0.134659	 -1.306661	 -1.466741
C	 1.463013	 -1.545621	 0.912827
O	 1.970282	 -0.730723	 0.000018
O	 1.965988	 -1.718112	 1.978717
C	 3.377318	 -0.566646	 -0.000065
H	 3.695437	 -0.028981	 -0.881264
H	 3.789299	 -1.563704	 0.000236
H	 3.695516	 -0.028316	 0.880770

12 13 15 16 F

13 12 10 6 F

