%nprocshared=1
%mem=2GB
#HF/6-31G* nosymm scf=tight 

Mol

0 1
H	 1.490893	 1.320315	 -2.266912
C	 0.761233	 1.118773	 -1.491087
C	 1.322923	 0.120767	 -0.479465
H	 0.510581	 2.063290	 -1.018399
H	 -0.133946	 0.734295	 -1.970071
C	 0.306652	 -0.176050	 0.621399
H	 2.225554	 0.517222	 -0.026134
H	 1.585617	 -0.807673	 -0.972672
N	 -1.068537	 -0.011044	 0.085269
H	 0.372515	 -1.192590	 0.973735
H	 0.391664	 0.520566	 1.441230
O	 -1.656956	 -0.997225	 -0.235017
O	 -1.478635	 1.104830	 -0.018026

12 9 6 3 F

