%nprocshared=1
%mem=2GB
#HF/6-31G* nosymm scf=tight 

Mol

0 1
H	 -0.032151	 -0.420899	 -0.757127
N	 -0.626943	 -0.667432	 -0.000092
C	 -1.979713	 -0.158776	 0.000050
C	 -0.129458	 -1.463543	 0.977088
H	 -2.520245	 -0.492427	 -0.879443
H	 -1.934741	 0.918111	 -0.004428
H	 -2.517790	 -0.485056	 0.883818
C	 1.313588	 -1.880637	 0.775506
O	 -0.770414	 -1.815001	 1.928859
H	 1.961420	 -1.010551	 0.735279
H	 1.613210	 -2.511059	 1.599212
H	 1.428121	 -2.427315	 -0.155280

3 2 4 9 F

