%nprocshared=1
%mem=2GB
#HF/6-31G* nosymm scf=tight 

Mol

0 1
H	 -1.070890	 -1.366565	 0.180696
O	 -1.422729	 -0.573567	 -0.196946
C	 -0.731407	 0.539437	 0.309156
C	 0.680193	 0.672443	 -0.251532
H	 -1.319765	 1.404033	 0.030086
H	 -0.700012	 0.506517	 1.397677
C	 0.911378	 -0.136082	 -1.528460
H	 0.878772	 1.722940	 -0.443024
H	 1.382630	 0.349981	 0.514066
H	 0.274993	 0.209745	 -2.337542
H	 1.937920	 -0.044461	 -1.867258
H	 0.710829	 -1.192767	 -1.368899

1 2 3 4 F

