%nprocshared=1
%mem=2GB
#HF/6-31G* nosymm scf=tight 

Mol

0 1
H	 -2.525385	 -4.628652	 -0.834980
C	 -1.720601	 -4.002878	 -0.492175
C	 -1.289744	 -4.089423	 0.823128
C	 -1.117650	 -3.112624	 -1.366720
H	 -1.758221	 -4.780275	 1.500342
C	 -0.254899	 -3.284476	 1.263172
H	 -1.452988	 -3.046929	 -2.385955
C	 -0.081581	 -2.305873	 -0.928443
H	 0.091557	 -3.337921	 2.277462
C	 0.352553	 -2.390221	 0.389197
H	 0.387885	 -1.615541	 -1.601766
C	 1.463013	 -1.545621	 0.912827
O	 1.970282	 -0.730723	 0.000018
O	 1.861350	 -1.590479	 2.034510
C	 3.377318	 -0.566646	 -0.000065
H	 3.695437	 -0.028981	 -0.881264
H	 3.789299	 -1.563704	 0.000236
H	 3.695516	 -0.028316	 0.880770

12 13 15 16 F

13 12 10 6 F

