%nprocshared=24
%mem=2GB
#HF/6-31G* nosymm scf=tight 

Mol

0 1
H	 -2.455504	 -1.062989	 3.255514
C	 -2.425350	 -0.963885	 2.187839
C	 -1.271134	 -0.975404	 1.562018
H	 -3.351856	 -0.856911	 1.655811
O	 -0.351626	 -1.955298	 1.764928
H	 -0.993185	 -0.226465	 0.841579
C	 0.906363	 -1.802081	 1.202933
C	 0.859557	 -1.890473	 -0.305805
H	 1.611680	 -2.542832	 1.562807
H	 1.267133	 -0.818645	 1.465965
F	 -0.144062	 -1.153841	 -0.759599
F	 1.972457	 -1.437086	 -0.858728
F	 0.677693	 -3.126021	 -0.723819

11 8 7 9 F

3 5 7 9 F

6 3 5 7 F

