%nprocshared=1
%mem=2GB
#HF/6-31G* nosymm scf=tight 

Mol

0 1
H	 -3.218699	 -0.793150	 0.630293
C	 -2.576710	 0.077797	 0.746231
O	 -1.266643	 -0.202068	 0.371081
H	 -2.938618	 0.867588	 0.102496
H	 -2.634252	 0.413525	 1.780834
C	 -0.659876	 -1.204647	 1.123355
C	 0.710224	 -1.494316	 0.556677
H	 -0.558574	 -0.888841	 2.162441
H	 -1.254963	 -2.115457	 1.106029
O	 1.392611	 -0.295398	 0.366430
H	 1.251737	 -2.143406	 1.241843
H	 0.601635	 -2.022160	 -0.391628
C	 2.706965	 -0.449871	 -0.062409
H	 2.756559	 -0.644779	 -1.131878
H	 3.305899	 0.433456	 0.155466
H	 3.125548	 -1.294566	 0.467107

3 6 7 11 F

2 3 6 7 F

