%nprocshared=1
%mem=2GB
#HF/6-31G* nosymm scf=tight 

Mol

0 1
H	 -2.273092	 1.173159	 0.000295
O	 -1.438904	 1.618192	 0.000114
C	 -0.409536	 0.736003	 0.000030
C	 0.820130	 1.215387	 0.423482
C	 -0.563217	 -0.588926	 -0.402324
H	 0.894663	 2.243697	 0.725165
C	 1.915884	 0.373895	 0.450415
C	 0.555442	 -1.412453	 -0.364994
C	 -1.905677	 -1.110008	 -0.864146
H	 2.867153	 0.751984	 0.780005
C	 1.789167	 -0.948141	 0.055271
H	 0.453256	 -2.438725	 -0.672680
H	 -2.271021	 -0.574643	 -1.738132
H	 -1.837037	 -2.155500	 -1.136562
H	 -2.662300	 -1.030699	 -0.086181
H	 2.637148	 -1.608285	 0.073640
