%nprocshared=1
%mem=2GB
#HF/6-31G* nosymm scf=tight 

Mol

0 1
H	 2.790661	 -0.483541	 -0.645521
O	 1.977955	 -0.907244	 -0.387118
C	 1.011345	 0.009905	 -0.398666
C	 -0.318135	 -0.576402	 0.000164
O	 1.217217	 1.141874	 -0.694063
C	 -1.454360	 0.441875	 -0.000474
H	 -0.525998	 -1.399602	 -0.678171
H	 -0.192636	 -1.026478	 0.981329
C	 -2.826123	 -0.230780	 0.000056
H	 -1.357605	 1.085198	 -0.868380
H	 -1.357504	 1.086451	 0.866496
H	 -2.959731	 -0.858053	 -0.876869
H	 -3.619374	 0.509403	 -0.000080
H	 -2.959371	 -0.857318	 0.877556

2 3 4 7 F

1 2 3 5 F

