%nprocshared=1
%mem=2GB
#HF/6-31G* nosymm scf=tight 

Mol

0 1
H	 1.713951	 -1.265497	 1.443167
C	 1.835241	 -0.331763	 0.880822
C	 0.584976	 0.497076	 0.736602
O	 2.896871	 -0.036768	 0.435796
C	 -0.558097	 -0.297372	 0.091132
H	 0.827961	 1.380838	 0.158325
H	 0.283064	 0.818626	 1.732737
C	 -1.850991	 0.512573	 -0.019058
H	 -0.251907	 -0.625345	 -0.899552
H	 -0.747206	 -1.199480	 0.670181
C	 -3.096943	 -0.368295	 -0.099594
H	 -1.800724	 1.150330	 -0.898172
H	 -1.931651	 1.177355	 0.838044
H	 -3.060452	 -1.020287	 -0.967456
H	 -3.996858	 0.233488	 -0.175704
H	 -3.191959	 -0.995686	 0.782074

6 3 5 9 F

4 2 3 6 F

