%nprocshared=1
%mem=2GB
#HF/6-31G* nosymm scf=tight 

Mol

0 1
H	 -2.240291	 0.559484	 0.604969
C	 -2.008299	 -0.205926	 -0.129530
O	 -0.774054	 0.001095	 -0.743181
H	 -2.752932	 -0.160639	 -0.912984
H	 -2.076115	 -1.178578	 0.348530
C	 -0.648350	 -0.175968	 -2.142959
C	 0.739208	 0.380670	 -2.454162
C	 -0.712793	 -1.659435	 -2.520269
C	 -1.713901	 0.623837	 -2.899284
H	 1.493654	 -0.166008	 -1.899739
H	 0.797070	 1.423346	 -2.162867
H	 0.962932	 0.303422	 -3.513238
H	 -0.004213	 -2.228611	 -1.927832
H	 -0.465304	 -1.791878	 -3.568510
H	 -1.701209	 -2.078505	 -2.365450
H	 -1.708350	 1.658662	 -2.573463
H	 -1.514641	 0.600841	 -3.965727
H	 -2.710569	 0.223593	 -2.747327

2 3 6 7 F

