%nprocshared=1
%mem=2GB
#HF/6-31G* nosymm scf=tight 

Mol

0 1
H	 -2.178356	 1.125440	 -2.015173
C	 -1.755623	 0.607674	 -1.174582
C	 -2.563828	 0.108247	 -0.167445
C	 -0.391238	 0.432285	 -1.087180
H	 -3.630340	 0.234743	 -0.217375
C	 -2.005988	 -0.556172	 0.908701
H	 0.260733	 0.806004	 -1.848787
C	 0.154804	 -0.237046	 -0.000077
H	 -2.650115	 -0.936441	 1.679799
C	 -0.632415	 -0.753909	 1.034412
N	 1.611208	 -0.370857	 -0.000034
C	 -0.131258	 -1.495215	 2.254345
O	 2.274126	 0.622059	 -0.008063
O	 2.068510	 -1.474748	 0.007823
H	 0.541571	 -0.885470	 2.841404
H	 -0.976116	 -1.773338	 2.871790
H	 0.408481	 -2.391391	 1.981079
