%nprocshared=1
%mem=2GB
#HF/6-31G* nosymm scf=tight 

Mol

0 1
H	 -3.135461	 -1.215070	 0.001379
O	 -2.310168	 -0.871793	 -0.309793
C	 -2.026376	 0.340750	 0.341611
C	 -0.673256	 0.843270	 -0.132153
H	 -2.792215	 1.080697	 0.115987
H	 -2.013526	 0.200402	 1.421792
C	 0.486613	 -0.083066	 0.235839
H	 -0.715586	 0.970948	 -1.210718
H	 -0.508072	 1.829858	 0.297090
C	 0.226205	 -0.886261	 1.511331
H	 1.389350	 0.507284	 0.354442
H	 0.671932	 -0.770325	 -0.588887
C	 0.329657	 -0.039751	 2.779555
H	 -0.763612	 -1.334711	 1.457734
H	 0.932184	 -1.712381	 1.571021
H	 -0.388578	 0.775007	 2.765441
H	 0.138128	 -0.634636	 3.667458
H	 1.319911	 0.395797	 2.880584

14 10 7 11 F

2 3 4 8 F

1 2 3 4 F

