%nprocshared=1
%mem=2GB
#HF/6-31G* nosymm scf=tight 

Mol

0 1
H	 2.851729	 -0.414915	 0.126751
O	 2.014636	 -0.866024	 0.076133
C	 1.049006	 0.052227	 0.078207
C	 -0.318135	 -0.576402	 0.000164
O	 1.282679	 1.215439	 0.135918
C	 -1.454360	 0.441875	 -0.000474
H	 -0.340796	 -1.193084	 -0.894371
H	 -0.406398	 -1.265091	 0.836179
C	 -2.826123	 -0.230780	 0.000056
H	 -1.357605	 1.085198	 -0.868380
H	 -1.357504	 1.086451	 0.866496
H	 -2.959731	 -0.858053	 -0.876869
H	 -3.619374	 0.509403	 -0.000080
H	 -2.959371	 -0.857318	 0.877556

2 3 4 7 F

1 2 3 5 F

