%nprocshared=1
%mem=2GB
#HF/6-31G* nosymm scf=tight 
prop=(read,field)

Mol

0 1
H	 0.848207	 1.730852	 0.125997
O	 0.055961	 1.300622	 -0.164503
C	 0.004972	 -0.003930	 0.366625
C	 1.201679	 -0.827905	 -0.095764
C	 -1.317740	 -0.601643	 -0.081535
H	 0.013542	 0.048482	 1.454900
H	 1.216403	 -0.895105	 -1.178728
H	 2.135147	 -0.372711	 0.226443
H	 1.166785	 -1.832694	 0.313803
H	 -1.355717	 -0.658064	 -1.164453
H	 -2.141599	 0.017221	 0.254523
H	 -1.447288	 -1.600633	 0.322570

@grid.dat /N
