%nprocshared=1
%mem=2GB
#HF/6-31G* nosymm scf=tight 

Mol

0 1
H	 -0.465927	 -0.540989	 -0.972586
N	 -0.626943	 -0.667432	 -0.000092
C	 -1.865966	 -1.286326	 0.412834
C	 0.325755	 -0.252874	 0.869779
H	 -2.551604	 -1.378344	 -0.422893
H	 -2.317341	 -0.664912	 1.169030
H	 -1.688517	 -2.272970	 0.827657
C	 1.674978	 -0.919497	 0.690344
O	 0.127974	 0.574320	 1.716447
H	 2.068026	 -0.726742	 -0.302990
H	 2.359261	 -0.526889	 1.427442
H	 1.590945	 -1.994555	 0.814939

4 2 3 5 F

