%nprocshared=1
%mem=2GB
#HF/6-31G* nosymm scf=tight 

Mol

0 1
H	 2.121471	 -3.162999	 -1.333939
O	 1.687944	 -3.087755	 -2.172259
C	 0.329325	 -3.405971	 -2.031249
C	 -0.281952	 -2.695873	 -0.836357
H	 -0.234520	 -3.164194	 -2.927899
H	 0.270842	 -4.475278	 -1.884234
O	 -0.043959	 -1.331029	 -0.978982
H	 0.162985	 -3.068151	 0.088533
H	 -1.348821	 -2.906727	 -0.792599
C	 -0.381609	 -0.813417	 -2.226865
H	 0.366496	 -0.106062	 -2.579876
H	 -0.435693	 -1.641239	 -2.920182
H	 -1.346371	 -0.311084	 -2.200645

8 4 3 5 F

1 2 3 5 F

10 7 4 8 F

