%nprocshared=1
%mem=2GB
#HF/6-31G* nosymm scf=tight 

Mol

0 1
H	 -0.512048	 2.690951	 -1.458942
C	 0.240130	 2.312799	 -0.755426
C	 0.065331	 0.871482	 -0.349150
O	 1.111984	 3.024273	 -0.374120
C	 -1.339775	 0.583656	 0.198860
H	 0.831976	 0.625340	 0.376511
H	 0.235820	 0.263641	 -1.236632
C	 -1.808407	 -0.848507	 -0.061364
H	 -2.036183	 1.280685	 -0.256307
H	 -1.360094	 0.788874	 1.267089
H	 -1.828843	 -1.063152	 -1.125336
H	 -2.808409	 -1.004529	 0.329750
H	 -1.153967	 -1.577789	 0.406873

6 3 2 4 F

