%nprocshared=1
%mem=2GB
#HF/6-31G* nosymm scf=tight 

Mol

0 1
H	 2.332609	 0.878551	 -1.051851
C	 2.357710	 0.000000	 -0.417167
C	 1.175432	 0.000000	 0.532082
H	 3.291263	 0.000000	 0.136880
H	 2.332609	 -0.878551	 -1.051851
O	 0.000000	 0.000000	 -0.221444
H	 1.206604	 0.877321	 1.177902
H	 1.206604	 -0.877321	 1.177902
C	 -1.175432	 0.000000	 0.532082
C	 -0.903766	 -0.697061	 1.850853
H	 -1.969256	 -0.511685	 -0.011766
H	 -1.509968	 1.022762	 0.704681
H	 -0.581793	 -1.717941	 1.679263
H	 -1.799488	 -0.715198	 2.463912
H	 -0.121861	 -0.181343	 2.396715
