%nprocshared=1
%mem=2GB
#HF/6-31G* nosymm scf=tight 

Mol

0 1
H	 0.011768	 -0.304121	 -0.669204
N	 -0.626943	 -0.667432	 -0.000092
C	 -1.979713	 -0.158776	 0.000050
C	 -0.186146	 -1.614273	 0.863247
H	 -2.520245	 -0.492427	 -0.879443
H	 -1.934741	 0.918111	 -0.004428
H	 -2.517790	 -0.485056	 0.883818
C	 1.268585	 -2.000298	 0.685125
O	 -0.882313	 -2.112532	 1.704262
H	 1.913316	 -1.138508	 0.826523
H	 1.520445	 -2.757715	 1.412161
H	 1.442516	 -2.388987	 -0.313376

3 2 4 9 F

