%nprocshared=1
%mem=2GB
#HF/6-31G* nosymm scf=tight 

Mol

0 1
H	 -1.836216	 1.387520	 -0.000064
C	 -1.301823	 0.443321	 -0.000031
O	 -0.003969	 0.658512	 0.000451
O	 -1.829879	 -0.616434	 -0.000857
C	 0.850537	 -0.484732	 0.000380
C	 2.136234	 -0.090486	 -0.693791
H	 0.349322	 -1.294505	 -0.511841
H	 1.023395	 -0.791367	 1.022823
H	 1.942893	 0.221294	 -1.713813
H	 2.816604	 -0.935380	 -0.715806
H	 2.620357	 0.726872	 -0.171836

5 3 2 4 F

