%nprocshared=1
%mem=2GB
#HF/6-31G* nosymm scf=tight 

Mol

0 1
O	 -0.682937	 1.318834	 -0.186099
C	 -0.860635	 0.152188	 -0.042321
C	 -2.173363	 -0.477127	 0.338347
O	 0.083258	 -0.765189	 -0.202595
H	 -2.477673	 -1.180929	 -0.427595
H	 -2.923125	 0.290956	 0.455536
H	 -2.058825	 -1.029004	 1.264191
C	 -0.105693	 -2.044651	 0.397464
C	 -0.085398	 -1.957291	 1.912259
H	 0.651234	 -2.722623	 0.033380
H	 -1.072224	 -2.370913	 0.041274
H	 -0.306914	 -2.930636	 2.339178
H	 0.888129	 -1.643767	 2.267667
H	 -0.831811	 -1.253213	 2.263765

10 8 4 2 F

