%nprocshared=1
%mem=2GB
#HF/6-31G* nosymm scf=tight 

Mol

0 1
H	 -2.798360	 -0.862255	 -0.071053
N	 -1.863561	 -0.715187	 0.256814
C	 -1.344686	 0.554728	 -0.219830
H	 -1.300452	 -1.461917	 -0.101532
C	 -2.213802	 1.689113	 0.281114
H	 -0.315380	 0.750189	 0.084022
H	 -1.369281	 0.554141	 -1.305268
O	 -3.480554	 1.559905	 -0.298311
H	 -2.293369	 1.651212	 1.367332
H	 -1.767514	 2.641609	 0.003963
C	 -4.361650	 2.592075	 0.011314
H	 -5.298683	 2.384112	 -0.487101
H	 -4.540308	 2.654733	 1.083292
H	 -3.984737	 3.553097	 -0.332461

8 5 3 6 F

5 8 11 13 F

11 8 5 3 F

