%nprocshared=1
%mem=2GB
#HF/6-31G* nosymm scf=tight 

Mol

0 1
H	 -3.161837	 0.500524	 -0.000234
C	 -2.367097	 -0.232926	 -0.000000
O	 -1.158440	 0.455814	 -0.000122
H	 -2.468853	 -0.861886	 -0.882833
H	 -2.468942	 -0.861421	 0.883154
C	 -1.201254	 1.690764	 0.648678
C	 0.173873	 2.331254	 0.574778
H	 -1.501766	 1.558110	 1.688868
H	 -1.945125	 2.335861	 0.179195
C	 0.221408	 3.694448	 1.263490
H	 0.892785	 1.656411	 1.029106
H	 0.452561	 2.428798	 -0.469979
H	 -0.030970	 3.615233	 2.317270
H	 1.213313	 4.128388	 1.195188
H	 -0.474921	 4.393029	 0.807953

11 7 6 8 F

8 6 3 2 F

