%nprocshared=1
%mem=2GB
#HF/6-31G* nosymm scf=tight 

Mol

0 1
O	 -1.532065	 -1.442175	 0.712454
C	 -0.451170	 -1.129930	 1.097049
C	 0.801727	 -1.959116	 0.945507
O	 -0.200640	 0.010821	 1.724367
C	 1.124911	 -2.785238	 2.184071
H	 1.613075	 -1.280220	 0.700432
H	 0.669725	 -2.590969	 0.072237
H	 1.272053	 -2.149836	 3.048928
H	 2.030738	 -3.360307	 2.024106
H	 0.320287	 -3.472711	 2.414906
C	 -1.294054	 0.897112	 1.939625
C	 -1.713200	 1.437191	 0.588721
H	 -0.980332	 1.688466	 2.606649
H	 -2.097332	 0.355795	 2.420574
H	 -0.896187	 1.971849	 0.117776
H	 -2.547976	 2.120449	 0.706854
H	 -2.019383	 0.631957	 -0.069388

2 4 11 13 F

11 4 2 3 F

