%nprocshared=1
%mem=2GB
#HF/6-31G* nosymm scf=tight 

Mol

0 1
H	 -3.161837	 0.500524	 -0.000234
C	 -2.367097	 -0.232926	 -0.000000
O	 -1.158440	 0.455814	 -0.000122
H	 -2.468853	 -0.861886	 -0.882833
H	 -2.468942	 -0.861421	 0.883154
C	 -1.058687	 1.440634	 0.983775
C	 0.300233	 2.109559	 0.871797
H	 -1.182068	 0.997128	 1.972703
H	 -1.854304	 2.176601	 0.860266
C	 0.470226	 3.257510	 1.865875
H	 1.067786	 1.358550	 1.031517
H	 0.422983	 2.471828	 -0.144271
H	 0.375112	 2.911305	 2.891311
H	 1.447788	 3.716618	 1.763714
H	 -0.274804	 4.032297	 1.707637

6 3 2 4 F

8 6 3 2 F

