%nprocshared=1
%mem=2GB
#HF/6-31G* nosymm scf=tight 

Mol

0 1
O	 0.747326	 2.049501	 0.286964
C	 -0.262718	 2.321992	 0.851411
C	 -1.527571	 1.498726	 0.834830
O	 -0.410715	 3.415580	 1.588389
C	 -1.412532	 0.227344	 -0.000452
H	 -1.779778	 1.270283	 1.866799
H	 -2.326630	 2.138456	 0.470133
C	 -2.706999	 -0.587347	 -0.000541
H	 -0.596199	 -0.378767	 0.379988
H	 -1.143339	 0.490647	 -1.018642
C	 -3.956778	 0.291888	 0.000910
H	 -2.726114	 -1.239230	 -0.871609
H	 -2.725217	 -1.240844	 0.869333
H	 -3.985213	 0.933254	 -0.875158
H	 -4.860123	 -0.309979	 0.000519
H	 -3.984618	 0.931166	 0.878514
C	 0.706799	 4.279515	 1.687981
H	 1.546414	 3.765045	 2.132790
H	 0.392631	 5.096956	 2.318089
H	 0.991470	 4.646614	 0.712425

1 2 3 6 F

9 5 3 6 F

1 2 4 17 F

