%nprocshared=1
%mem=2GB
#HF/6-31G* nosymm scf=tight 

Mol

0 1
H	 -3.457960	 0.166880	 1.449720
O	 -3.367910	 -0.300316	 2.267454
C	 -3.043259	 -1.643282	 2.012310
C	 -1.609705	 -1.833855	 1.529264
H	 -3.184960	 -2.163733	 2.950780
H	 -3.740919	 -2.074362	 1.295219
C	 -1.314720	 -1.174099	 0.179978
H	 -0.935821	 -1.437562	 2.284379
H	 -1.414703	 -2.902721	 1.459510
C	 -0.105589	 -1.791439	 -0.528339
H	 -1.143090	 -0.112081	 0.331721
H	 -2.189366	 -1.261562	 -0.464759
C	 -0.091801	 -3.324110	 -0.561054
H	 -0.053409	 -1.409308	 -1.546229
H	 0.799134	 -1.449629	 -0.029997
C	 0.081036	 -3.996319	 0.803768
H	 -1.027515	 -3.664967	 -0.999314
H	 0.696383	 -3.662191	 -1.232101
C	 -0.017270	 -5.521724	 0.733681
H	 -0.677692	 -3.619498	 1.488202
H	 1.041810	 -3.725932	 1.235169
C	 0.161300	 -6.195586	 2.093713
H	 -0.982364	 -5.801392	 0.316710
H	 0.733743	 -5.899297	 0.042809
H	 -0.595671	 -5.863027	 2.798428
H	 0.084438	 -7.275368	 2.011268
H	 1.133147	 -5.965237	 2.521285

14 10 7 4 F

14 10 13 16 F

8 4 3 2 F

10 13 16 20 F

20 16 19 22 F

4 3 2 1 F

