%nprocshared=1
%mem=2GB
#HF/6-31G* nosymm scf=tight 

Mol

0 1
O	 1.673162	 1.597878	 0.471392
C	 1.187638	 1.014821	 1.386504
C	 -0.125575	 0.271532	 1.357200
O	 1.756886	 0.937874	 2.582820
C	 -0.823008	 0.326187	 0.001381
H	 0.074992	 -0.753815	 1.655779
H	 -0.752824	 0.689660	 2.139790
C	 -2.149452	 -0.435131	 -0.000098
H	 -0.162518	 -0.081882	 -0.757183
H	 -0.992222	 1.362924	 -0.272210
C	 -3.368779	 0.488503	 -0.000883
H	 -2.193746	 -1.087250	 -0.871175
H	 -2.195311	 -1.087803	 0.870418
C	 -3.346354	 1.505125	 -1.141597
H	 -3.422266	 1.013619	 0.950187
H	 -4.273627	 -0.111280	 -0.069069
H	 -2.469560	 2.143689	 -1.080920
H	 -4.223185	 2.144600	 -1.115337
H	 -3.327221	 1.009791	 -2.108339
C	 3.000999	 1.594026	 2.745924
H	 3.737462	 1.186082	 2.068627
H	 3.295537	 1.418164	 3.768761
H	 2.898600	 2.653949	 2.562660

15 11 8 12 F

1 2 3 6 F

9 5 3 6 F

1 2 4 20 F

