%nprocshared=1
%mem=2GB
#HF/6-31G* nosymm scf=tight 

Mol

0 1
H	 2.652209	 0.763231	 0.000000
O	 2.263154	 -0.100023	 0.000000
C	 0.912879	 -0.015685	 0.000000
C	 0.261236	 -0.189457	 1.213979
C	 0.183750	 0.233257	 -1.151296
H	 0.845303	 -0.381546	 2.094761
C	 -1.116984	 -0.112332	 1.264682
H	 0.689967	 0.367946	 -2.092638
C	 -1.199951	 0.308122	 -1.085859
H	 -1.616949	 -0.247626	 2.207240
C	 -1.859054	 0.136707	 0.117412
H	 -1.758549	 0.501738	 -1.984287
H	 -2.931013	 0.195313	 0.164666
