%nprocshared=1
%mem=2GB
#HF/6-31G* nosymm scf=tight 

Mol

0 1
H	 2.161365	 -0.648248	 0.730568
C	 1.932196	 -0.337074	 -0.295811
C	 0.661060	 0.456171	 -0.456794
O	 2.664453	 -0.628309	 -1.185255
C	 -0.558097	 -0.297372	 0.091132
H	 0.539595	 0.693949	 -1.507122
H	 0.782009	 1.391409	 0.088671
C	 -1.850991	 0.512573	 -0.019058
H	 -0.672201	 -1.234847	 -0.448215
H	 -0.386001	 -0.559878	 1.133405
C	 -3.096943	 -0.368295	 -0.099594
H	 -1.800724	 1.150330	 -0.898172
H	 -1.931651	 1.177355	 0.838044
H	 -3.060452	 -1.020287	 -0.967456
H	 -3.996858	 0.233488	 -0.175704
H	 -3.191959	 -0.995686	 0.782074

6 3 5 9 F

4 2 3 6 F

