%nprocshared=1
%mem=2GB
#HF/6-31G* nosymm scf=tight 

Mol

0 1
H	 1.212397	 -1.159729	 0.244351
O	 1.479000	 -0.279334	 0.017016
C	 0.569691	 0.628668	 0.567154
C	 -0.795902	 0.595680	 -0.067389
H	 1.007893	 1.611687	 0.437319
H	 0.468510	 0.472678	 1.640679
C	 -1.522220	 -0.487727	 -0.255690
H	 -1.174387	 1.555690	 -0.383003
H	 -1.071454	 -1.449856	 -0.418625
H	 -2.596511	 -0.445958	 -0.267127

5 3 2 1 F

5 3 4 7 F

