%nprocshared=1
%mem=2GB
#HF/6-31G* nosymm scf=tight 

Mol

0 1
H	 -2.662387	 0.400076	 0.705421
O	 -1.732014	 0.542977	 0.610256
C	 -1.500969	 1.518160	 -0.374473
C	 -1.861208	 2.928327	 0.079821
H	 -0.443290	 1.465347	 -0.598525
H	 -2.037841	 1.270440	 -1.289450
C	 -1.312639	 3.296570	 1.460523
H	 -1.491625	 3.633850	 -0.659781
H	 -2.946443	 3.015408	 0.086854
C	 -1.975680	 2.504312	 2.590798
H	 -1.456602	 4.360025	 1.629943
H	 -0.237450	 3.118148	 1.482330
C	 -2.087810	 0.996018	 2.340165
H	 -1.429181	 2.675620	 3.516454
H	 -2.975594	 2.901786	 2.751688
C	 -3.034785	 0.600176	 1.203932
H	 -1.095130	 0.612560	 2.113531
H	 -2.399818	 0.501274	 3.258706
C	 -4.465221	 1.099239	 1.418936
H	 -3.044660	 -0.484477	 1.106250
H	 -2.666261	 0.987989	 0.257311
C	 -5.411106	 0.710962	 0.283063
H	 -4.847259	 0.703375	 2.357459
H	 -4.456195	 2.181939	 1.526468
H	 -5.467273	 -0.368187	 0.171231
H	 -6.416738	 1.077069	 0.465559
H	 -5.076338	 1.123259	 -0.664726

14 10 7 4 F

14 10 13 16 F

10 7 4 8 F

8 4 3 2 F

20 16 19 22 F

4 3 2 1 F

