%nprocshared=1
%mem=2GB
#HF/6-31G* nosymm scf=tight 

Mol

0 1
O	 -1.086057	 -1.024968	 -2.096295
C	 -0.422116	 -1.091073	 -1.112143
C	 0.825513	 -1.927364	 -0.956247
O	 -0.698257	 -0.426125	 0.001050
C	 1.180754	 -2.710651	 -2.213718
H	 0.669583	 -2.588924	 -0.109328
H	 1.630731	 -1.258982	 -0.666153
H	 0.381712	 -3.387899	 -2.489817
H	 2.081229	 -3.292931	 -2.049675
H	 1.351880	 -2.045907	 -3.051665
C	 -1.853104	 0.406779	 0.000512
C	 -3.066105	 -0.499277	 -0.000959
H	 -1.828410	 1.043074	 -0.873618
H	 -1.829857	 1.042383	 0.875188
H	 -3.071820	 -1.133106	 -0.880383
H	 -3.972708	 0.097145	 -0.001528
H	 -3.073405	 -1.133813	 0.877999

4 2 3 6 F

11 4 2 3 F

