%nprocshared=1
%mem=2GB
#HF/6-31G* nosymm scf=tight 

Mol

0 1
H	 0.010467	 -0.307955	 0.672324
N	 -0.626943	 -0.667432	 -0.000092
C	 -1.979713	 -0.158776	 0.000050
C	 -0.183566	 -1.606928	 -0.870109
H	 -2.520245	 -0.492427	 -0.879443
H	 -1.934741	 0.918111	 -0.004428
H	 -2.517790	 -0.485056	 0.883818
C	 1.270647	 -1.994427	 -0.690969
O	 -0.877516	 -2.098822	 -1.716684
H	 1.439504	 -2.398464	 0.302306
H	 1.526593	 -2.740571	 -1.428165
H	 1.915732	 -1.130330	 -0.815623

3 2 4 9 F

