%nprocshared=1
%mem=2GB
#HF/6-31G* nosymm scf=tight 

Mol

0 1
H	 0.261704	 -0.054306	 -2.448753
O	 0.363026	 0.853747	 -2.197704
C	 0.472563	 0.932512	 -0.806388
C	 -0.795902	 0.595680	 -0.067389
H	 0.764059	 1.952538	 -0.583273
H	 1.277113	 0.293042	 -0.444721
C	 -1.522220	 -0.487727	 -0.255690
H	 -1.103866	 1.326337	 0.664582
H	 -1.071454	 -1.449856	 -0.418625
H	 -2.596511	 -0.445958	 -0.267127

5 3 2 1 F

5 3 4 7 F

