%nprocshared=1
%mem=2GB
#HF/6-31G* nosymm scf=tight 

Mol

0 1
H	 -2.798360	 -0.862255	 -0.071053
N	 -1.863561	 -0.715187	 0.256814
C	 -1.344686	 0.554728	 -0.219830
H	 -1.300452	 -1.461917	 -0.101532
C	 0.081427	 0.741154	 0.254071
H	 -1.362155	 0.656231	 -1.305829
H	 -1.952773	 1.354456	 0.191809
O	 0.635285	 -0.522422	 0.485813
H	 0.662424	 1.272020	 -0.499761
H	 0.088843	 1.329873	 1.168724
C	 1.924484	 -0.496958	 1.010111
H	 2.244424	 -1.521350	 1.144119
H	 2.618382	 0.002478	 0.336278
H	 1.952424	 0.010242	 1.972284

6 3 2 4 F

5 8 11 13 F

11 8 5 3 F

