%nprocshared=1
%mem=2GB
#HF/6-31G* nosymm scf=tight 

Mol

0 1
H	 -3.239302	 1.253877	 -0.383940
C	 -2.683531	 2.031661	 0.135976
O	 -1.323966	 1.964025	 -0.150983
H	 -3.039208	 2.997337	 -0.195847
H	 -2.872865	 1.935483	 1.204306
C	 -0.719715	 0.768384	 0.229244
C	 0.719720	 0.768376	 -0.229267
H	 -0.750417	 0.657425	 1.313882
H	 -1.235893	 -0.082954	 -0.209831
O	 1.392611	 -0.295398	 0.366430
H	 0.750534	 0.687200	 -1.313918
H	 1.185043	 1.714359	 0.050526
C	 2.706965	 -0.449871	 -0.062409
H	 2.756559	 -0.644779	 -1.131878
H	 3.305899	 0.433456	 0.155466
H	 3.125548	 -1.294566	 0.467107

7 10 13 14 F

2 3 6 7 F

