%nprocshared=1
%mem=2GB
#HF/6-31G* nosymm scf=tight 

Mol

0 1
O	 -0.389695	 0.092980	 2.453461
C	 -0.833093	 0.610524	 1.479901
C	 -1.689737	 1.847648	 1.474314
O	 -0.632575	 0.154573	 0.251549
H	 -2.647636	 1.627754	 1.017121
H	 -1.833848	 2.193421	 2.486988
H	 -1.213112	 2.620317	 0.882227
C	 0.160891	 -1.019931	 0.106212
C	 1.589627	 -0.672828	 0.480843
H	 0.089836	 -1.367806	 -0.916050
H	 -0.238459	 -1.792301	 0.749618
C	 1.982489	 -1.101768	 1.895788
H	 1.700649	 0.405059	 0.382021
H	 2.262202	 -1.124442	 -0.243689
C	 1.595808	 -2.548840	 2.198217
H	 3.056515	 -0.980543	 2.021772
H	 1.510049	 -0.441111	 2.615296
H	 1.883809	 -2.828348	 3.206663
H	 2.081170	 -3.237880	 1.512705
H	 0.523080	 -2.694742	 2.108526

16 12 9 8 F

2 4 8 10 F

1 2 4 8 F

