%nprocshared=1
%mem=2GB
#HF/6-31G* nosymm scf=tight 

Mol

0 1
H	 -3.420663	 1.227371	 -1.044276
O	 -3.452007	 0.283848	 -0.965577
C	 -3.181085	 -0.079926	 0.364119
C	 -1.765924	 0.277073	 0.805136
H	 -3.327791	 -1.152017	 0.410903
H	 -3.905698	 0.375695	 1.036898
C	 -0.677594	 -0.417312	 -0.014550
H	 -1.637766	 1.358238	 0.744969
H	 -1.659588	 0.017670	 1.857098
C	 0.738335	 -0.034840	 0.421385
H	 -0.814977	 -0.178223	 -1.064632
H	 -0.802730	 -1.495410	 0.071702
C	 0.762924	 1.167589	 1.368827
H	 1.205499	 -0.893192	 0.898257
H	 1.339741	 0.190394	 -0.458493
C	 0.326098	 2.493157	 0.734628
H	 1.764546	 1.280340	 1.780818
H	 0.110269	 0.958024	 2.213776
C	 0.085266	 3.626929	 1.733110
H	 -0.590384	 2.321558	 0.175249
H	 1.071301	 2.805962	 0.005911
H	 -0.647112	 3.337828	 2.482231
H	 -0.291295	 4.511475	 1.228516
H	 0.994581	 3.911659	 2.251993

20 16 13 17 F

17 13 10 7 F

11 7 4 3 F

1 2 3 5 F

7 4 3 2 F

