%nprocshared=1
%mem=2GB
#HF/6-31G* nosymm scf=tight 

Mol

0 1
H	 -1.836216	 1.387520	 -0.000064
C	 -1.301823	 0.443321	 -0.000031
O	 -0.003969	 0.658512	 0.000451
O	 -1.829879	 -0.616434	 -0.000857
C	 0.850537	 -0.484732	 0.000380
C	 0.133832	 -1.587157	 -0.748828
H	 1.058892	 -0.764240	 1.023992
H	 1.786815	 -0.220664	 -0.471791
H	 -0.805240	 -1.832859	 -0.266326
H	 0.751944	 -2.478585	 -0.771796
H	 -0.073871	 -1.286801	 -1.769384

5 3 2 4 F

