%nprocshared=1
%mem=2GB
#HF/6-31G* nosymm scf=tight 

Mol

0 1
H	 -0.216825	 0.021369	 -3.357402
C	 0.374198	 0.036393	 -2.447010
C	 -0.521757	 -0.028637	 -1.217342
H	 0.969602	 0.942322	 -2.434777
H	 1.053364	 -0.811668	 -2.481329
N	 0.263400	 0.031178	 0.000000
H	 -1.199035	 0.820290	 -1.219355
H	 -1.147901	 -0.924895	 -1.265384
C	 -0.521757	 -0.028637	 1.217342
H	 0.935769	 -0.712709	 0.000000
C	 -1.969452	 -0.391205	 0.914401
H	 -0.085991	 -0.789469	 1.858146
H	 -0.487539	 0.908551	 1.781390
H	 -2.021467	 -1.340549	 0.393437
H	 -2.549304	 -0.464659	 1.829127
H	 -2.438315	 0.362556	 0.286975
