%nprocshared=1
%mem=2GB
#HF/6-31G* nosymm scf=tight 

Mol

0 1
H	 1.378956	 -1.156293	 1.403829
C	 0.478886	 -1.272468	 0.815882
O	 0.000000	 0.000000	 0.521119
H	 0.718821	 -1.827871	 -0.089462
H	 -0.245304	 -1.847898	 1.390443
C	 -1.165642	 0.000000	 -0.238270
H	 -1.228672	 0.883184	 -0.872070
H	 -2.003012	 0.000000	 0.445920
H	 -1.228672	 -0.883184	 -0.872070
