%nprocshared=1
%mem=2GB
#HF/6-31G* nosymm scf=tight 

Mol

0 1
O	 -2.218765	 -1.655423	 -4.398877
C	 -2.271900	 -2.677321	 -3.784600
C	 -1.888979	 -2.723455	 -2.315740
C	 -2.750236	 -3.962774	 -4.421922
C	 -0.373408	 -2.537145	 -2.138330
H	 -2.181872	 -3.693820	 -1.929855
H	 -2.424714	 -1.961386	 -1.756932
C	 0.149006	 -1.302371	 -2.876593
H	 -0.163580	 -2.464709	 -1.077146
H	 0.149422	 -3.420141	 -2.502629
C	 0.075323	 -1.399736	 -4.404711
H	 1.178903	 -1.115821	 -2.577866
H	 -0.423400	 -0.434147	 -2.556615
C	 -1.053427	 -2.288511	 -4.930067
H	 1.023541	 -1.787350	 -4.768483
H	 -0.024340	 -0.400645	 -4.824201
H	 -0.984148	 -3.291584	 -4.518035
H	 -1.004790	 -2.372263	 -6.011279
H	 -2.032469	 -1.894716	 -4.678683
H	 -1.929961	 -4.674221	 -4.469428
H	 -3.114383	 -3.767581	 -5.420962
H	 -3.535185	 -4.418725	 -3.825460

6 3 2 1 F

6 3 5 8 F

3 5 8 12 F

