%nprocshared=1
%mem=2GB
#HF/6-31G* nosymm scf=tight 
prop=(read,field)

Mol

0 1
H	 -2.599145	 -0.501817	 -0.086299
N	 -1.852375	 0.165777	 -0.074818
C	 -0.564028	 -0.502026	 0.037917
H	 -2.009233	 0.762267	 0.715341
C	 0.575009	 0.508247	 -0.048328
H	 -0.482342	 -1.203988	 -0.786566
H	 -0.460661	 -1.085153	 0.956624
C	 1.954401	 -0.143608	 0.035135
H	 0.474908	 1.060500	 -0.977309
H	 0.468931	 1.234504	 0.755971
H	 2.103042	 -0.853093	 -0.774174
H	 2.742571	 0.599578	 -0.030096
H	 2.083363	 -0.679355	 0.971558

@grid.dat /N
