%nprocshared=1
%mem=2GB
#HF/6-31G* nosymm scf=tight 

Mol

0 1
H	 -2.798360	 -0.862255	 -0.071053
N	 -1.863561	 -0.715187	 0.256814
C	 -1.344686	 0.554728	 -0.219830
H	 -1.300452	 -1.461917	 -0.101532
C	 0.081427	 0.741154	 0.254071
H	 -1.362155	 0.656231	 -1.305829
H	 -1.952773	 1.354456	 0.191809
O	 0.101382	 0.610586	 1.646781
H	 0.730400	 -0.006551	 -0.201350
H	 0.437859	 1.726597	 -0.037637
C	 1.344511	 0.844470	 2.227729
H	 1.237086	 0.714356	 3.296011
H	 2.092921	 0.143676	 1.862006
H	 1.692427	 1.855962	 2.028613

6 3 2 4 F

5 8 11 13 F

11 8 5 3 F

