%nprocshared=1
%mem=2GB
#HF/6-31G* nosymm scf=tight 

Mol

0 1
H	 -3.135461	 -1.215070	 0.001379
O	 -2.310168	 -0.871793	 -0.309793
C	 -2.026376	 0.340750	 0.341611
C	 -0.673256	 0.843270	 -0.132153
H	 -2.792215	 1.080697	 0.115987
H	 -2.013526	 0.200402	 1.421792
C	 0.486613	 -0.083066	 0.235839
H	 -0.715586	 0.970948	 -1.210718
H	 -0.508072	 1.829858	 0.297090
C	 0.793056	 -1.114939	 -0.850966
H	 0.254561	 -0.591121	 1.166186
H	 1.377506	 0.515251	 0.423367
C	 -0.247232	 -2.232306	 -0.921416
H	 0.849859	 -0.614791	 -1.815509
H	 1.775639	 -1.548146	 -0.674031
H	 -1.235496	 -1.833680	 -1.131944
H	 -0.005535	 -2.947493	 -1.701823
H	 -0.304194	 -2.774839	 0.018225

14 10 7 11 F

2 3 4 8 F

1 2 3 4 F

