%nprocshared=1
%mem=2GB
#HF/6-31G* nosymm scf=tight 

Mol

0 1
H	 0.751459	 -0.213700	 2.367021
C	 -0.211657	 -0.235170	 1.875847
O	 0.000000	 0.000000	 0.521119
H	 -0.671532	 -1.207639	 2.044692
H	 -0.849716	 0.528304	 2.318200
C	 -1.165642	 0.000000	 -0.238270
H	 -1.228672	 0.883184	 -0.872070
H	 -2.003012	 0.000000	 0.445920
H	 -1.228672	 -0.883184	 -0.872070
