%nprocshared=1
%mem=2GB
#HF/6-31G* nosymm scf=tight 

Mol

0 1
O	 3.225979	 0.970355	 -0.599647
C	 2.701189	 0.057885	 -0.047330
C	 1.245376	 -0.013843	 0.345420
O	 3.347903	 -1.046386	 0.304773
C	 0.455112	 1.231400	 -0.050772
H	 0.838542	 -0.913825	 -0.103701
H	 1.208210	 -0.175333	 1.419774
C	 -0.998893	 1.219485	 0.433193
H	 0.482531	 1.345121	 -1.130325
H	 0.957290	 2.103070	 0.354729
C	 -1.883438	 0.145884	 -0.207175
H	 -1.431207	 2.195402	 0.224832
H	 -1.019646	 1.105716	 1.516076
C	 -1.496546	 -1.273073	 0.214577
H	 -2.922138	 0.330506	 0.062707
H	 -1.832395	 0.216067	 -1.291353
C	 -0.139331	 -1.719143	 -0.332342
H	 -2.263973	 -1.969427	 -0.119160
H	 -1.482606	 -1.334449	 1.301655
C	 0.960743	 -0.679387	 -0.121526
H	 0.151235	 -2.653099	 0.144040
H	 -0.232330	 -1.935013	 -1.394666
H	 1.910081	 -1.024315	 -0.519507
H	 1.102422	 -0.467189	 0.934455
H	 0.715522	 0.256569	 -0.615618
C	 4.728119	 -1.109107	 -0.004993
H	 4.882018	 -1.033965	 -1.071845
H	 5.068212	 -2.067527	 0.355250
H	 5.265056	 -0.311663	 0.488280

21 17 14 11 F

17 14 11 15 F

6 3 5 9 F

11 8 5 9 F

2 4 26 27 F

1 2 4 26 F

6 3 2 1 F

