%nprocshared=1
%mem=2GB
#HF/6-31G* nosymm scf=tight 

Mol

0 1
O	 0.888560	 1.036733	 0.704466
C	 0.576249	 0.131685	 -0.000108
C	 -0.766779	 -0.556801	 -0.000461
O	 1.391071	 -0.402883	 -0.900645
C	 -1.945214	 0.412366	 0.000161
H	 -0.796911	 -1.211249	 -0.867467
H	 -0.796854	 -1.212390	 0.865687
C	 -2.595608	 0.525473	 -1.377795
H	 -1.605979	 1.388243	 0.330594
H	 -2.678075	 0.084300	 0.729449
H	 -1.888458	 0.883138	 -2.121077
H	 -3.429963	 1.218859	 -1.356171
H	 -2.973428	 -0.434978	 -1.717296
C	 2.689147	 0.153576	 -1.003392
H	 2.634374	 1.198297	 -1.273763
H	 3.190088	 -0.407164	 -1.777016
H	 3.219560	 0.056275	 -0.067067

1 2 3 6 F

14 4 2 1 F

