%nprocshared=1
%mem=2GB
#HF/6-31G* nosymm scf=tight 

Mol

0 1
O	 -2.042549	 -1.228399	 -0.269030
C	 -1.653912	 -0.146171	 0.050137
C	 -0.332303	 0.024011	 0.778412
C	 -2.438579	 1.106236	 -0.272369
C	 -0.159886	 1.468844	 1.272987
H	 -0.267793	 -0.664007	 1.616775
H	 0.461512	 -0.217531	 0.080245
C	 0.019115	 2.466026	 0.127292
H	 0.699265	 1.529848	 1.938736
H	 -1.030525	 1.738938	 1.863053
C	 -1.014015	 2.281868	 -0.983535
H	 -0.044922	 3.479718	 0.516847
H	 1.018910	 2.359247	 -0.286925
H	 -2.023994	 2.416451	 -0.606862
H	 -0.952007	 1.287136	 -1.414934
H	 -0.861068	 2.999720	 -1.783111
H	 -3.277823	 0.863061	 -0.908988
H	 -1.806773	 1.843019	 -0.759671
H	 -2.802853	 1.554979	 0.648059

11 8 5 9 F

9 5 3 2 F

