%nprocshared=1
%mem=2GB
#HF/6-31G* nosymm scf=tight 

Mol

0 1
O	 -2.042549	 -1.228399	 -0.269030
C	 -1.653912	 -0.146171	 0.050137
C	 -0.332303	 0.024011	 0.778412
C	 -2.438579	 1.106236	 -0.272369
C	 -0.253679	 -0.907243	 1.998435
H	 0.500084	 -0.173004	 0.108562
H	 -0.267199	 1.055996	 1.105049
C	 -1.236574	 -0.515359	 3.102689
H	 0.757891	 -0.902176	 2.400658
H	 -0.453509	 -1.923351	 1.671732
C	 -2.647541	 -0.259305	 2.574661
H	 -1.268325	 -1.301279	 3.854185
H	 -0.871354	 0.376344	 3.606721
H	 -3.053868	 -1.144835	 2.094258
H	 -2.652440	 0.544518	 1.844395
H	 -3.321570	 0.019381	 3.378431
H	 -3.277823	 0.863061	 -0.908988
H	 -1.806773	 1.843019	 -0.759671
H	 -2.802853	 1.554979	 0.648059

11 8 5 9 F

9 5 3 2 F

