%nprocshared=1
%mem=2GB
#HF/6-31G* nosymm scf=tight 
prop=(read,field)

Mol

0 1
H	 -2.365336	 -1.312883	 -0.379096
C	 -1.358056	 -1.274295	 0.019707
C	 -0.681654	 0.000119	 -0.470563
H	 -0.825805	 -2.155117	 -0.321067
H	 -1.409263	 -1.292283	 1.100147
C	 -1.357499	 1.274691	 0.020258
N	 0.739816	 -0.000142	 0.006166
H	 -0.593899	 0.000341	 -1.545090
H	 -2.364689	 1.313977	 -0.378593
H	 -0.824789	 2.155361	 -0.320076
H	 -1.408769	 1.292170	 1.100709
O	 1.597566	 0.000909	 -0.821387
O	 0.922101	 -0.001271	 1.186069

@grid.dat /N
