%nprocshared=1
%mem=2GB
#HF/6-31G* nosymm scf=tight 

Mol

0 1
H	 -0.367348	 2.047014	 -0.308205
C	 0.352277	 1.337084	 0.083769
N	 -0.000016	 0.000074	 -0.335546
H	 1.328359	 1.600444	 -0.307950
H	 0.381933	 1.450534	 1.172486
C	 -1.387931	 -0.301275	 -0.068805
C	 0.349435	 -0.242571	 -1.716547
H	 -1.597003	 -1.332568	 -0.329716
H	 -1.595022	 -0.175805	 0.987999
H	 -2.079825	 0.336990	 -0.628075
H	 1.410463	 -0.074431	 -1.862570
H	 0.136527	 -1.273960	 -1.974124
H	 -0.194965	 0.400905	 -2.415470
