%nprocshared=1
%mem=2GB
#HF/6-31G* nosymm scf=tight 

Mol

0 1
H	 -2.462608	 -1.813189	 0.466304
O	 -2.666147	 -1.171252	 -0.199185
C	 -1.811298	 -0.067262	 -0.067171
C	 -0.366482	 -0.505231	 0.095177
H	 -1.895439	 0.608769	 -0.913493
H	 -2.126767	 0.470383	 0.815929
O	 -0.043959	 -1.331029	 -0.978982
H	 -0.240413	 -1.037927	 1.039805
H	 0.279366	 0.370273	 0.126124
C	 -0.381609	 -0.813417	 -2.226865
H	 0.366496	 -0.106062	 -2.579876
H	 -0.435693	 -1.641239	 -2.920182
H	 -1.346371	 -0.311084	 -2.200645

8 4 3 5 F

1 2 3 5 F

10 7 4 8 F

