%nprocshared=1
%mem=2GB
#HF/6-31G* nosymm scf=tight opt=ModRedundant

Mol

0 1
H	 -3.270000	 -0.877000	 0.468000
C	 -2.810000	 0.000000	 0.026000
N	 -1.392000	 0.000000	 0.301000
H	 -3.038000	 -0.000000	 -1.044000
H	 -3.269000	 0.877000	 0.468000
C	 -0.735000	 1.193000	 -0.196000
C	 -0.735000	 -1.193000	 -0.196000
H	 -0.814000	 1.272000	 -1.285000
H	 -1.220000	 2.064000	 0.233000
C	 0.735000	 1.193000	 0.196000
H	 -1.220000	 -2.064000	 0.233000
H	 -0.814000	 -1.272000	 -1.285000
C	 0.735000	 -1.193000	 0.196000
H	 1.220000	 2.064000	 -0.233000
H	 0.814000	 1.272000	 1.285000
N	 1.392000	 -0.000000	 -0.301000
H	 1.220000	 -2.064000	 -0.233000
H	 0.814000	 -1.272000	 1.285000
C	 2.810000	 -0.000000	 -0.026000
H	 3.270000	 0.877000	 -0.468000
H	 3.269000	 -0.877000	 -0.468000
H	 3.038000	 0.000000	 1.044000
