%nprocshared=1
%mem=2GB
#HF/6-31G* nosymm scf=tight 

Mol

0 1
O	 0.391030	 1.298905	 0.000133
C	 0.503002	 0.111612	 0.000005
C	 -0.702327	 -0.811998	 -0.000075
C	 1.863306	 -0.554493	 0.000030
C	 -2.030333	 -0.082755	 -0.163647
H	 -0.562345	 -1.543589	 -0.793770
H	 -0.685843	 -1.382586	 0.926706
H	 -2.059302	 0.466057	 -1.097020
H	 -2.853115	 -0.790029	 -0.156522
H	 -2.183896	 0.628485	 0.638709
H	 1.974395	 -1.189404	 -0.874166
H	 2.638695	 0.198920	 -0.000196
H	 1.974487	 -1.188655	 0.874727
