%nprocshared=1
%mem=2GB
#HF/6-31G* nosymm scf=tight 

Mol

0 1
O	 -7.067348	 1.899579	 -0.059611
C	 -6.156356	 2.631081	 -0.299938
C	 -4.727824	 2.301850	 0.094829
C	 -6.369627	 3.946476	 -1.020636
C	 -4.574484	 0.966985	 0.817919
H	 -4.119382	 2.322535	 -0.808364
H	 -4.355833	 3.118833	 0.711727
C	 -3.123174	 0.669971	 1.199029
H	 -4.959967	 0.173510	 0.185519
H	 -5.196475	 0.970726	 1.707447
C	 -2.259874	 0.272531	 0.000494
H	 -2.687482	 1.544375	 1.680316
H	 -3.097793	 -0.128259	 1.939468
C	 -2.299309	 1.292585	 -1.138781
H	 -2.587596	 -0.695989	 -0.373119
H	 -1.230224	 0.139201	 0.327663
C	 -3.566352	 2.147124	 -1.131721
H	 -1.427462	 1.940154	 -1.072741
H	 -2.220829	 0.772174	 -2.091079
H	 -3.656394	 2.706940	 -0.205088
H	 -3.564796	 2.860504	 -1.950126
H	 -4.455333	 1.530813	 -1.231810
H	 -5.790996	 3.973429	 -1.939374
H	 -7.418643	 4.070364	 -1.250967
H	 -6.033659	 4.774967	 -0.403901

9 5 8 12 F

15 11 8 12 F

1 2 3 6 F

9 5 3 6 F

