%nprocshared=1
%mem=2GB
#HF/6-31G* nosymm scf=tight 

Mol

0 1
O	 -0.644987	 -1.652990	 1.664992
C	 -1.514987	 -1.440192	 0.882411
C	 -2.775474	 -2.260464	 0.784449
O	 -1.481751	 -0.454642	 0.000584
H	 -3.283566	 -2.233162	 1.740984
H	 -3.433286	 -1.897333	 0.008654
H	 -2.505502	 -3.290827	 0.586090
C	 -0.334255	 0.388708	 0.000906
C	 0.891947	 -0.504646	 0.000751
H	 -0.365390	 1.025305	 -0.873475
H	 -0.365484	 1.024911	 0.875569
C	 0.838286	 -1.556101	 -1.109219
H	 0.972990	 -0.989855	 0.969484
H	 1.777328	 0.114301	 -0.115286
C	 0.712515	 -2.983190	 -0.572633
H	 -0.002158	 -1.346449	 -1.768603
H	 1.733928	 -1.482518	 -1.723623
C	 0.657570	 -4.033237	 -1.681348
H	 -0.182188	 -3.058589	 0.041287
H	 1.552798	 -3.195182	 0.084675
H	 -0.192976	 -3.867792	 -2.336492
H	 0.568329	 -5.033802	 -1.270079
H	 1.555166	 -4.005648	 -2.292553

13 9 8 10 F

2 4 8 10 F

19 15 12 16 F

1 2 4 8 F

