%nprocshared=1
%mem=2GB
#HF/6-31G* nosymm scf=tight 

Mol

0 1
H	 4.004620	 -0.221562	 2.748116
C	 3.307438	 -0.721996	 2.083847
C	 2.004882	 0.066940	 1.957791
H	 3.793893	 -0.833247	 1.118854
H	 3.130161	 -1.717521	 2.481024
C	 0.995108	 -0.603762	 1.032095
H	 2.206384	 1.065906	 1.583821
H	 1.561135	 0.189035	 2.944489
N	 -0.214000	 0.187187	 0.914130
H	 1.428258	 -0.702142	 0.040296
H	 0.794791	 -1.621214	 1.384292
C	 -1.217365	 -0.386708	 0.039277
H	 -0.608561	 0.329900	 1.824622
C	 -2.452633	 0.504241	 -0.042481
H	 -0.780507	 -0.485400	 -0.950860
H	 -1.512715	 -1.394860	 0.348762
C	 -3.758029	 -0.289423	 -0.010781
H	 -2.394220	 1.093569	 -0.952170
H	 -2.440793	 1.210787	 0.785871
H	 -3.816659	 -0.981993	 -0.845726
H	 -4.617837	 0.370165	 -0.069296
H	 -3.847478	 -0.867502	 0.904682

10 6 9 12 F

