%nprocshared=1
%mem=2GB
#HF/6-31G* nosymm scf=tight 

Mol

0 1
H	 2.965956	 1.511206	 1.428499
N	 2.128615	 0.963070	 1.384297
C	 1.865559	 0.531981	 0.018834
H	 1.383868	 1.544941	 1.718376
C	 0.645745	 -0.382037	 -0.029944
H	 2.737243	 -0.014640	 -0.327910
H	 1.722341	 1.364887	 -0.674098
C	 -0.679275	 0.379305	 0.025956
H	 0.698998	 -0.976915	 -0.937203
H	 0.693479	 -1.083846	 0.802235
C	 -1.903357	 -0.536963	 -0.023547
H	 -0.726309	 1.082987	 -0.803784
H	 -0.717680	 0.977832	 0.934877
C	 -3.225172	 0.228290	 0.028445
H	 -1.867824	 -1.134999	 -0.931459
H	 -1.860449	 -1.239604	 0.805977
H	 -3.313397	 0.915643	 -0.808262
H	 -4.073500	 -0.448134	 -0.008893
H	 -3.306061	 0.809945	 0.942516

12 8 5 9 F

12 8 11 15 F

1 2 3 6 F

