%nprocshared=1
%mem=2GB
#HF/6-31G* nosymm scf=tight 

Mol

0 1
H	 -2.646374	 -0.642757	 1.268656
C	 -2.083525	 -0.384536	 0.393091
O	 -0.807605	 -0.127164	 0.768327
F	 -2.118945	 -1.383102	 -0.486752
F	 -2.621877	 0.670592	 -0.209486
C	 -0.374708	 -0.640888	 1.977200
C	 -0.710722	 -2.126569	 1.974920
Cl	 -1.170741	 0.176665	 3.331879
H	 0.687690	 -0.534529	 2.110505
F	 -2.013832	 -2.303078	 2.028665
F	 -0.177849	 -2.683771	 3.044036
F	 -0.245337	 -2.737432	 0.912735

10 7 6 9 F

9 6 3 2 F

