%nprocshared=1
%mem=2GB
#HF/6-31G* nosymm scf=tight 

Mol

0 1
H	 -1.745309	 2.531469	 3.075557
C	 -2.659813	 2.590148	 2.472348
C	 -3.404488	 1.288793	 2.315683
O	 -2.996720	 3.625974	 1.997682
C	 -3.830654	 1.025489	 0.864715
H	 -2.780978	 0.489535	 2.699259
H	 -4.292190	 1.350614	 2.944030
C	 -4.902224	 1.994114	 0.357958
H	 -2.952130	 1.095322	 0.230205
H	 -4.188961	 0.001244	 0.773638
C	 -6.253274	 1.803461	 1.050150
H	 -5.022208	 1.862266	 -0.715386
H	 -4.568652	 3.020400	 0.499401
C	 -7.144331	 3.045428	 0.963640
H	 -6.759475	 0.950440	 0.605350
H	 -6.089580	 1.551128	 2.097010
C	 -8.476090	 2.930578	 1.714174
H	 -7.340708	 3.275648	 -0.082366
H	 -6.595566	 3.895780	 1.362978
C	 -9.441535	 1.892099	 1.140506
H	 -8.962502	 3.902772	 1.700334
H	 -8.281521	 2.704290	 2.760528
H	 -9.641833	 2.084110	 0.089658
H	 -9.050397	 0.883621	 1.223924
H	 -10.390864	 1.916855	 1.666962

6 3 5 8 F

6 3 2 4 F

3 5 8 12 F

8 11 14 18 F

20 17 14 18 F

