%nprocshared=1
%mem=2GB
#HF/6-31G* nosymm scf=tight 

Mol

0 1
H	 -3.161837	 0.500524	 -0.000234
C	 -2.367097	 -0.232926	 -0.000000
O	 -1.158440	 0.455814	 -0.000122
H	 -2.468853	 -0.861886	 -0.882833
H	 -2.468942	 -0.861421	 0.883154
C	 -1.058687	 1.440634	 0.983775
C	 0.300233	 2.109559	 0.871797
H	 -1.182068	 0.997128	 1.972703
H	 -1.854304	 2.176601	 0.860266
C	 0.452877	 2.909956	 -0.420853
H	 0.436972	 2.757348	 1.732223
H	 1.067106	 1.343369	 0.931456
H	 -0.291080	 3.698833	 -0.488864
H	 1.431141	 3.375737	 -0.474634
H	 0.342817	 2.274878	 -1.295477

6 3 2 4 F

8 6 3 2 F

