%nprocshared=1
%mem=2GB
#HF/6-31G* nosymm scf=tight 

Mol

0 1
O	 -0.682937	 1.318834	 -0.186099
C	 -0.860635	 0.152188	 -0.042321
C	 -2.173363	 -0.477127	 0.338347
O	 0.083258	 -0.765189	 -0.202595
H	 -2.477673	 -1.180929	 -0.427595
H	 -2.923125	 0.290956	 0.455536
H	 -2.058825	 -1.029004	 1.264191
C	 1.391937	 -0.334737	 -0.569838
C	 2.273066	 -0.130938	 0.648655
H	 1.316984	 0.568944	 -1.155401
H	 1.773135	 -1.129419	 -1.194873
H	 3.281137	 0.121904	 0.334659
H	 1.897132	 0.675073	 1.266221
H	 2.318453	 -1.037430	 1.242478

8 4 2 1 F

