%nprocshared=1
%mem=2GB
#HF/6-31G* nosymm scf=tight 

Mol

0 1
O	 -2.042549	 -1.228399	 -0.269030
C	 -1.653912	 -0.146171	 0.050137
C	 -0.332303	 0.024011	 0.778412
C	 -2.438579	 1.106236	 -0.272369
C	 0.557229	 -1.216331	 0.599097
H	 0.188874	 0.907675	 0.420788
H	 -0.552335	 0.163437	 1.831061
C	 -0.000699	 -2.449126	 1.311812
H	 1.558215	 -1.008484	 0.973142
H	 0.657877	 -1.419506	 -0.462850
C	 -1.486058	 -2.672695	 1.030860
H	 0.561891	 -3.328784	 1.006655
H	 0.153102	 -2.343133	 2.383110
H	 -1.667814	 -2.816179	 -0.030474
H	 -2.078301	 -1.822248	 1.355561
H	 -1.854833	 -3.551009	 1.551048
H	 -3.277823	 0.863061	 -0.908988
H	 -1.806773	 1.843019	 -0.759671
H	 -2.802853	 1.554979	 0.648059

11 8 5 9 F

9 5 3 2 F

