%nprocshared=1
%mem=2GB
#HF/6-31G* nosymm scf=tight 

Mol

0 1
H	 -3.135461	 -1.215070	 0.001379
O	 -2.310168	 -0.871793	 -0.309793
C	 -2.026376	 0.340750	 0.341611
C	 -0.673256	 0.843270	 -0.132153
H	 -2.792215	 1.080697	 0.115987
H	 -2.013526	 0.200402	 1.421792
C	 0.486613	 -0.083066	 0.235839
H	 -0.715586	 0.970948	 -1.210718
H	 -0.508072	 1.829858	 0.297090
C	 1.539528	 -0.187378	 -0.868835
H	 0.095756	 -1.069873	 0.461574
H	 0.959059	 0.279247	 1.148179
C	 1.074515	 -1.028495	 -2.057093
H	 1.798122	 0.811413	 -1.214181
H	 2.453389	 -0.614745	 -0.460597
H	 0.181282	 -0.606736	 -2.508916
H	 1.839969	 -1.083014	 -2.825242
H	 0.840486	 -2.044324	 -1.750770

14 10 7 11 F

2 3 4 8 F

1 2 3 4 F

