%nprocshared=1
%mem=2GB
#HF/6-31G* nosymm scf=tight 

Mol

0 1
O	 -0.830242	 -0.637248	 2.110613
C	 -0.451170	 -1.129930	 1.097049
C	 0.801727	 -1.959116	 0.945507
O	 -1.092307	 -1.010881	 -0.057238
C	 1.124911	 -2.785238	 2.184071
H	 1.613075	 -1.280220	 0.700432
H	 0.669725	 -2.590969	 0.072237
H	 1.272053	 -2.149836	 3.048928
H	 2.030738	 -3.360307	 2.024106
H	 0.320287	 -3.472711	 2.414906
C	 -2.296401	 -0.250955	 -0.065626
C	 -3.330198	 -1.030017	 0.719636
H	 -2.607055	 -0.093992	 -1.089560
H	 -2.105214	 0.717549	 0.376005
H	 -3.506346	 -1.999500	 0.267713
H	 -4.268048	 -0.484372	 0.738565
H	 -3.001879	 -1.183523	 1.741349

2 4 11 13 F

11 4 2 3 F

