%nprocshared=1
%mem=2GB
#HF/6-31G* nosymm scf=tight 

Mol

0 1
H	 -3.161837	 0.500524	 -0.000234
C	 -2.367097	 -0.232926	 -0.000000
O	 -1.158440	 0.455814	 -0.000122
H	 -2.468853	 -0.861886	 -0.882833
H	 -2.468942	 -0.861421	 0.883154
C	 -1.058687	 1.440634	 0.983775
C	 -1.361232	 2.791064	 0.358101
H	 -0.057128	 1.439408	 1.415954
H	 -1.758587	 1.233604	 1.794444
C	 -0.227006	 3.287530	 -0.537406
H	 -2.280715	 2.707563	 -0.213072
H	 -1.550583	 3.504663	 1.154105
H	 -0.037532	 2.598556	 -1.355842
H	 -0.469239	 4.252449	 -0.969958
H	 0.698118	 3.400673	 0.020939

6 3 2 4 F

11 7 6 8 F

