%nprocshared=1
%mem=2GB
#HF/6-31G* nosymm scf=tight 

Mol

0 1
H	 -1.100110	 -1.848552	 0.276788
C	 -1.559770	 -0.872115	 0.164431
N	 -0.528168	 0.128977	 -0.000000
H	 -2.125407	 -0.667827	 1.066294
H	 -2.259195	 -0.928389	 -0.673963
C	 0.248044	 -0.037491	 -1.209632
H	 -0.937144	 1.041938	 0.016467
H	 0.998722	 0.743888	 -1.266824
H	 -0.398417	 0.061950	 -2.074060
H	 0.763621	 -0.999315	 -1.275517
