%nprocshared=1
%mem=2GB
#HF/6-31G* nosymm scf=tight 

Mol

0 1
H	 -3.269016	 -0.876744	 0.468090
C	 -2.809304	 0.000122	 0.025886
N	 -1.391456	 0.000019	 0.300661
H	 -3.037557	 -0.000063	 -1.044252
H	 -3.269223	 0.876956	 0.468000
C	 -0.807112	 -1.320975	 0.176948
C	 -1.081094	 0.580662	 1.592303
H	 -1.237659	 -2.020372	 0.900122
H	 -1.017100	 -1.703829	 -0.816475
C	 0.698232	 -1.257421	 0.383027
H	 -1.490929	 1.584698	 1.631108
H	 -1.529777	 0.007148	 2.409171
C	 0.424250	 0.644217	 1.798380
H	 1.108067	 -2.261456	 0.344220
H	 1.146914	 -0.683906	 -0.433841
N	 1.008594	 -0.676778	 1.674668
H	 0.634237	 1.027070	 2.791804
H	 0.854797	 1.343613	 1.075207
C	 2.426441	 -0.676881	 1.949444
H	 2.808491	 -1.690801	 1.907272
H	 2.607370	 -0.293251	 2.947402
H	 2.999084	 -0.068641	 1.242747
