%nprocshared=1
%mem=2GB
#HF/6-31G* nosymm scf=tight 

Mol

0 1
O	 2.860807	 1.359730	 -0.048598
C	 2.838899	 0.171901	 -0.155084
C	 1.542070	 -0.617504	 -0.151198
C	 4.115320	 -0.630766	 -0.302155
C	 0.291004	 0.242674	 0.000989
H	 1.501547	 -1.196228	 -1.073057
H	 1.602617	 -1.353963	 0.649029
C	 -0.994322	 -0.586602	 0.000262
H	 0.260571	 0.971618	 -0.802656
H	 0.361585	 0.813553	 0.921458
C	 -2.259874	 0.272531	 0.000494
H	 -1.004862	 -1.240012	 -0.870939
H	 -1.005220	 -1.241071	 0.870675
C	 -3.549786	 -0.549746	 -0.000374
H	 -2.250389	 0.926680	 -0.869574
H	 -2.250838	 0.925513	 0.871430
C	 -4.809590	 0.315458	 -0.000369
H	 -3.560515	 -1.202009	 -0.871156
H	 -3.561123	 -1.202955	 0.869711
H	 -4.844746	 0.956611	 -0.876632
H	 -5.706986	 -0.295590	 -0.001609
H	 -4.845960	 0.954827	 0.877144
H	 4.104233	 -1.193548	 -1.231010
H	 4.967596	 0.034351	 -0.293246
H	 4.206962	 -1.348192	 0.508115

15 11 8 12 F

15 11 14 18 F

1 2 3 6 F

9 5 3 6 F

