%nprocshared=1
%mem=2GB
#HF/6-31G* nosymm scf=tight 

Mol

0 1
H	 -0.985970	 -1.589079	 0.096466
N	 -0.626943	 -0.667432	 -0.000092
C	 -1.150303	 0.162333	 -1.061366
C	 0.325755	 -0.252874	 0.869779
H	 -1.767902	 -0.417513	 -1.739123
H	 -0.318079	 0.572166	 -1.610155
H	 -1.743742	 0.977523	 -0.660958
C	 1.674978	 -0.919497	 0.690344
O	 0.127974	 0.574320	 1.716447
H	 2.068026	 -0.726742	 -0.302990
H	 2.359261	 -0.526889	 1.427442
H	 1.590945	 -1.994555	 0.814939

4 2 3 5 F

