%nprocshared=1
%mem=2GB
#HF/6-31G* nosymm scf=tight 

Mol

0 1
O	 -0.046963	 0.418377	 1.942826
C	 0.128944	 -0.325626	 1.032189
C	 1.301064	 -1.266807	 0.888735
O	 -0.698257	 -0.426125	 0.001050
C	 2.279654	 -1.184236	 2.053427
H	 1.788535	 -1.037426	 -0.054135
H	 0.900685	 -2.270280	 0.779171
H	 2.688951	 -0.185845	 2.148596
H	 3.100357	 -1.877326	 1.902139
H	 1.793154	 -1.430166	 2.989461
C	 -1.853104	 0.406779	 0.000512
C	 -3.066105	 -0.499277	 -0.000959
H	 -1.828410	 1.043074	 -0.873618
H	 -1.829857	 1.042383	 0.875188
H	 -3.071820	 -1.133106	 -0.880383
H	 -3.972708	 0.097145	 -0.001528
H	 -3.073405	 -1.133813	 0.877999

4 2 3 6 F

11 4 2 3 F

