%nprocshared=1
%mem=2GB
#HF/6-31G* nosymm scf=tight 

Mol

0 1
O	 -0.923021	 -0.796155	 2.173702
C	 -0.336095	 -0.970337	 1.154427
C	 0.900818	 -1.821691	 0.994713
O	 -0.698257	 -0.426125	 0.001050
C	 1.354038	 -2.467474	 2.297987
H	 1.678204	 -1.189997	 0.575333
H	 0.685306	 -2.569258	 0.237110
H	 1.583730	 -1.717688	 3.045268
H	 2.243013	 -3.065913	 2.129439
H	 0.581955	 -3.109714	 2.703869
C	 -1.853104	 0.406779	 0.000512
C	 -3.066105	 -0.499277	 -0.000959
H	 -1.828410	 1.043074	 -0.873618
H	 -1.829857	 1.042383	 0.875188
H	 -3.071820	 -1.133106	 -0.880383
H	 -3.972708	 0.097145	 -0.001528
H	 -3.073405	 -1.133813	 0.877999

4 2 3 6 F

11 4 2 3 F

