%nprocshared=1
%mem=2GB
#HF/6-31G* nosymm scf=tight 

Mol

0 1
H	 -2.646374	 -0.642757	 1.268656
C	 -2.083525	 -0.384536	 0.393091
O	 -0.807605	 -0.127164	 0.768327
F	 -2.118945	 -1.383102	 -0.486752
F	 -2.621877	 0.670592	 -0.209486
C	 -0.027374	 -1.193990	 1.175522
C	 -0.130105	 -2.259303	 0.091680
Cl	 -0.589121	 -1.829718	 2.730355
H	 1.008262	 -0.924579	 1.287993
F	 -1.341692	 -2.772622	 0.065235
F	 0.719155	 -3.228818	 0.367789
F	 0.153507	 -1.784897	 -1.096797

10 7 6 9 F

9 6 3 2 F

