%nprocshared=1
%mem=2GB
#HF/6-31G* nosymm scf=tight 

Mol

0 1
H	 1.026445	 3.824608	 0.966421
N	 1.012869	 2.909375	 0.559346
C	 0.671467	 1.905799	 1.557247
H	 1.930759	 2.742009	 0.192880
C	 0.556208	 0.527485	 0.914814
H	 -0.286208	 2.181799	 1.987991
H	 1.385386	 1.862016	 2.383565
C	 -0.679275	 0.379305	 0.025956
H	 1.457894	 0.341223	 0.338529
H	 0.529223	 -0.229200	 1.698417
C	 -0.791153	 1.473151	 -1.037697
H	 -1.573918	 0.392133	 0.646680
H	 -0.662118	 -0.593684	 -0.462761
C	 -2.115055	 2.234023	 -0.975523
H	 0.033362	 2.173024	 -0.921214
H	 -0.676491	 1.028719	 -2.024099
H	 -2.243718	 2.718807	 -0.011807
H	 -2.163946	 3.002377	 -1.740928
H	 -2.958889	 1.565841	 -1.123406

6 3 5 9 F

12 8 5 9 F

1 2 3 6 F

