%nprocshared=1
%mem=2GB
#HF/6-31G* nosymm scf=tight 

Mol

0 1
H	 -2.698709	 -0.000305	 0.034435
C	 -1.693833	 0.000034	 0.434417
O	 -0.828952	 -0.000968	 -0.659236
H	 -1.574200	 0.882896	 1.055746
H	 -1.574147	 -0.881698	 1.057355
C	 0.559449	 -0.000018	 -0.420814
C	 0.970621	 -1.012038	 0.646739
C	 1.374024	 -0.147011	 -1.704488
H	 0.740634	 0.992109	 -0.024723
H	 0.339148	 -0.912023	 1.522973
H	 1.999212	 -0.837865	 0.946574
H	 0.903672	 -2.035201	 0.290620
H	 1.021310	 0.551182	 -2.455872
H	 2.420039	 0.065479	 -1.506584
H	 1.317174	 -1.150159	 -2.114735

6 3 2 1 F

