%nprocshared=1
%mem=2GB
#HF/6-31G* nosymm scf=tight 

Mol

0 1
H	 -1.488269	 3.599891	 1.261866
O	 -1.329470	 2.677471	 1.121819
C	 -0.190386	 2.510676	 0.315697
C	 0.031547	 1.023609	 0.088541
H	 0.686244	 2.933502	 0.803167
H	 -0.314616	 3.029187	 -0.632361
C	 -1.134819	 0.293262	 -0.585751
H	 0.226497	 0.563050	 1.052993
H	 0.935203	 0.904081	 -0.506723
C	 -1.917817	 -0.639439	 0.339494
H	 -0.758119	 -0.268455	 -1.433105
H	 -1.813832	 1.041889	 -0.986690
H	 -2.777680	 -1.057197	 -0.174994
H	 -1.310268	 -1.471279	 0.680599
H	 -2.283753	 -0.111424	 1.216626

2 3 4 8 F

1 2 3 4 F

