%nprocshared=1
%mem=2GB
#HF/6-31G* nosymm scf=tight 

Mol

0 1
O	 1.616469	 0.652560	 -1.436758
C	 0.526276	 1.096724	 -1.240208
C	 -0.650646	 0.177542	 -0.964048
C	 0.267186	 2.586680	 -1.223505
C	 -1.047154	 -0.600408	 -2.229242
H	 -1.482419	 0.795461	 -0.643683
H	 -0.414645	 -0.514928	 -0.161044
C	 0.149006	 -1.302371	 -2.876593
H	 -1.811283	 -1.320096	 -1.958062
H	 -1.497370	 0.079176	 -2.951196
C	 0.075323	 -1.399736	 -4.404711
H	 0.247240	 -2.302033	 -2.457363
H	 1.057485	 -0.767858	 -2.606759
C	 -1.053427	 -2.288511	 -4.930067
H	 1.023541	 -1.787350	 -4.768483
H	 -0.024340	 -0.400645	 -4.824201
H	 -0.984148	 -3.291584	 -4.518035
H	 -1.004790	 -2.372263	 -6.011279
H	 -2.032469	 -1.894716	 -4.678683
H	 -0.374110	 2.855306	 -2.058875
H	 1.201144	 3.125785	 -1.300136
H	 -0.252719	 2.876323	 -0.314874

6 3 2 1 F

6 3 5 8 F

12 8 11 15 F

