%nprocshared=1
%mem=2GB
#HF/6-31G* nosymm scf=tight 

Mol

0 1
H	 -0.671772	 -1.634146	 -0.226172
N	 -0.626943	 -0.667432	 -0.000092
C	 -1.583778	 0.223656	 -0.615840
C	 0.325755	 -0.252874	 0.869779
H	 -2.134787	 -0.281385	 -1.402180
H	 -1.044804	 1.053303	 -1.043531
H	 -2.289714	 0.602051	 0.115940
C	 1.674978	 -0.919497	 0.690344
O	 0.127974	 0.574320	 1.716447
H	 2.068026	 -0.726742	 -0.302990
H	 2.359261	 -0.526889	 1.427442
H	 1.590945	 -1.994555	 0.814939

4 2 3 5 F

