%nprocshared=1
%mem=2GB
#HF/6-31G* nosymm scf=tight 

Mol

0 1
O	 -0.682937	 1.318834	 -0.186099
C	 -0.860635	 0.152188	 -0.042321
C	 -2.173363	 -0.477127	 0.338347
O	 0.083258	 -0.765189	 -0.202595
H	 -2.477673	 -1.180929	 -0.427595
H	 -2.923125	 0.290956	 0.455536
H	 -2.058825	 -1.029004	 1.264191
C	 1.391937	 -0.334737	 -0.569838
C	 2.380986	 -1.485473	 -0.554447
H	 1.703209	 0.459042	 0.092103
H	 1.276237	 0.063165	 -1.567730
H	 3.347883	 -1.143379	 -0.910552
H	 2.505970	 -1.873454	 0.448657
H	 2.043481	 -2.287221	 -1.202295

8 4 2 1 F

