%nprocshared=1
%mem=2GB
#HF/6-31G* nosymm scf=tight 

Mol

0 1
H	 -2.240291	 0.559484	 0.604969
C	 -2.008299	 -0.205926	 -0.129530
O	 -0.774054	 0.001095	 -0.743181
H	 -2.752932	 -0.160639	 -0.912984
H	 -2.076115	 -1.178578	 0.348530
C	 -0.252294	 1.314184	 -0.843648
C	 1.181169	 1.097405	 -1.323441
C	 -1.028880	 2.139999	 -1.874246
C	 -0.246932	 2.012777	 0.519824
H	 1.181690	 0.579248	 -2.275778
H	 1.725920	 0.489983	 -0.609537
H	 1.700763	 2.042664	 -1.442478
H	 -1.088798	 1.604783	 -2.816044
H	 -0.529140	 3.086898	 -2.051005
H	 -2.037657	 2.362971	 -1.543781
H	 0.242784	 1.388458	 1.259726
H	 0.290131	 2.953666	 0.457986
H	 -1.249360	 2.234458	 0.870006

2 3 6 7 F

