%nprocshared=1
%mem=2GB
#HF/6-31G* nosymm scf=tight 
prop=(read,field)

Mol

0 1
H	 -4.031527	 -0.453383	 -0.000094
C	 -2.967421	 -0.296978	 -0.000064
C	 -2.458329	 0.992973	 0.000032
C	 -2.109604	 -1.385593	 -0.000122
H	 -3.124707	 1.836363	 0.000077
C	 -1.089987	 1.193280	 0.000070
H	 -2.506070	 -2.384803	 -0.000198
C	 -0.739521	 -1.187487	 -0.000085
H	 -0.678303	 2.184334	 0.000146
C	 -0.226147	 0.104105	 0.000012
H	 -0.072019	 -2.026988	 -0.000131
C	 1.239420	 0.373865	 0.000060
O	 1.970573	 -0.730679	 0.000018
O	 1.715147	 1.465901	 0.000133
C	 3.377609	 -0.566602	 -0.000065
H	 3.695728	 -0.028937	 -0.881264
H	 3.789590	 -1.563660	 0.000236
H	 3.695807	 -0.028272	 0.880770

@grid.dat /N
