%nprocshared=1
%mem=2GB
#HF/6-31G* nosymm scf=tight 

Mol

0 1
O	 -2.324811	 1.361668	 -0.277141
C	 -2.105949	 0.203097	 -0.092081
C	 -0.889235	 -0.467034	 -0.705952
C	 -3.002726	 -0.644460	 0.782455
C	 -0.213207	 0.457560	 -1.731258
H	 -1.226529	 -1.371108	 -1.201114
H	 -0.178198	 -0.748916	 0.065409
C	 0.999333	 -0.200514	 -2.394056
H	 -0.951537	 0.734504	 -2.475270
H	 0.101512	 1.378425	 -1.242681
C	 1.753381	 0.704131	 -3.375424
H	 0.678645	 -1.102913	 -2.911319
H	 1.690964	 -0.522992	 -1.618490
C	 0.958549	 1.085536	 -4.625531
H	 2.662561	 0.192992	 -3.681723
H	 2.072938	 1.607100	 -2.859073
H	 0.617416	 0.200706	 -5.156030
H	 1.572224	 1.663646	 -5.309338
H	 0.086283	 1.684563	 -4.386556
H	 -3.496582	 -1.399307	 0.176174
H	 -3.747939	 -0.023774	 1.260148
H	 -2.421318	 -1.168775	 1.535358

6 3 5 8 F

3 5 8 12 F

12 8 11 15 F

