%nprocshared=1
%mem=2GB
#HF/6-31G* nosymm scf=tight 

Mol

0 1
O	 3.225979	 0.970355	 -0.599647
C	 2.701189	 0.057885	 -0.047330
C	 1.245376	 -0.013843	 0.345420
O	 3.347903	 -1.046386	 0.304773
C	 0.455112	 1.231400	 -0.050772
H	 0.838542	 -0.913825	 -0.103701
H	 1.208210	 -0.175333	 1.419774
C	 -0.998893	 1.219485	 0.433193
H	 0.482531	 1.345121	 -1.130325
H	 0.957290	 2.103070	 0.354729
C	 -1.883438	 0.145884	 -0.207175
H	 -1.431207	 2.195402	 0.224832
H	 -1.019646	 1.105716	 1.516076
C	 -2.238923	 -0.986087	 0.758885
H	 -2.799458	 0.608043	 -0.572052
H	 -1.387532	 -0.278064	 -1.077415
C	 -1.039899	 -1.855889	 1.140879
H	 -3.008320	 -1.612827	 0.311159
H	 -2.677918	 -0.564414	 1.661755
C	 0.183570	 -1.038566	 1.554168
H	 -1.321911	 -2.519763	 1.955362
H	 -0.778182	 -2.497176	 0.301811
H	 1.016371	 -1.682754	 1.818879
H	 -0.035892	 -0.411777	 2.413917
H	 0.511564	 -0.388614	 0.747784
C	 4.728119	 -1.109107	 -0.004993
H	 4.882018	 -1.033965	 -1.071845
H	 5.068212	 -2.067527	 0.355250
H	 5.265056	 -0.311663	 0.488280

21 17 14 11 F

17 14 11 15 F

6 3 5 9 F

11 8 5 9 F

2 4 26 27 F

1 2 4 26 F

6 3 2 1 F

