%nprocshared=1
%mem=2GB
#HF/6-31G* nosymm scf=tight 

Mol

0 1
H	 2.652209	 0.763231	 0.000000
O	 2.263154	 -0.100023	 0.000000
C	 0.912879	 -0.015685	 0.000000
C	 0.236157	 -0.590971	 -1.067555
C	 0.207533	 0.614039	 1.012433
H	 0.802029	 -1.074371	 -1.842102
C	 -1.143110	 -0.530615	 -1.112142
H	 0.733197	 1.060069	 1.840235
C	 -1.177520	 0.667261	 0.954888
H	 -1.662546	 -0.977653	 -1.941014
C	 -1.861479	 0.097874	 -0.103250
H	 -1.717557	 1.158024	 1.744952
H	 -2.934415	 0.140851	 -0.144805
