%nprocshared=1
%mem=2GB
#HF/6-31G* nosymm scf=tight 

Mol

0 1
H	 2.451652	 -2.178703	 0.543297
O	 2.773837	 -1.297590	 0.410870
C	 1.759943	 -0.431505	 0.213148
C	 2.068819	 0.925151	 0.217712
C	 0.457309	 -0.844580	 0.011536
H	 3.088716	 1.220870	 0.376516
C	 1.074538	 1.860946	 0.020844
H	 0.191020	 -1.883110	 0.003098
C	 -0.516352	 0.121842	 -0.182968
H	 1.321868	 2.906250	 0.025908
C	 -0.242244	 1.471069	 -0.183909
N	 -1.892759	 -0.320532	 -0.395795
H	 -1.024393	 2.185140	 -0.338016
O	 -2.078883	 -1.486738	 -0.572864
O	 -2.749935	 0.508487	 -0.380298

11 9 12 14 F

