%nprocshared=1
%mem=2GB
#HF/6-31G* nosymm scf=tight 

Mol

0 1
H	 -2.930392	 0.180219	 2.099449
C	 -1.955358	 0.033354	 1.671885
C	 -1.625136	 -1.174265	 1.066218
C	 -1.012034	 1.039198	 1.715127
H	 -2.347924	 -1.969603	 1.023276
C	 -0.375900	 -1.366238	 0.516898
H	 -1.249691	 1.979913	 2.179519
C	 0.253153	 0.861449	 1.165431
H	 -0.107778	 -2.293812	 0.046204
C	 0.571823	 -0.346043	 0.564188
H	 0.964794	 1.662565	 1.214893
O	 1.765256	 -0.628444	 0.000000
C	 2.778419	 0.335181	 0.000000
H	 2.731280	 0.961222	 -0.884976
H	 3.711703	 -0.207767	 0.000000
H	 2.731280	 0.961222	 0.884976

13 12 10 8 F

