%nprocshared=1
%mem=2GB
#HF/6-31G* nosymm scf=tight 

Mol

0 1
H	 -3.420663	 1.227371	 -1.044276
O	 -3.452007	 0.283848	 -0.965577
C	 -3.181085	 -0.079926	 0.364119
C	 -1.765924	 0.277073	 0.805136
H	 -3.327791	 -1.152017	 0.410903
H	 -3.905698	 0.375695	 1.036898
C	 -0.677594	 -0.417312	 -0.014550
H	 -1.637766	 1.358238	 0.744969
H	 -1.659588	 0.017670	 1.857098
C	 0.738335	 -0.034840	 0.421385
H	 -0.814977	 -0.178223	 -1.064632
H	 -0.802730	 -1.495410	 0.071702
C	 0.830719	 1.401488	 0.943414
H	 1.072649	 -0.730688	 1.187184
H	 1.420854	 -0.154816	 -0.419077
C	 0.589474	 2.485133	 -0.113785
H	 1.807551	 1.556399	 1.398933
H	 0.101571	 1.529321	 1.740796
C	 0.407537	 3.895219	 0.450980
H	 -0.299254	 2.220309	 -0.681519
H	 1.413780	 2.484263	 -0.824223
H	 -0.402835	 3.923929	 1.174591
H	 0.167888	 4.599323	 -0.339997
H	 1.304580	 4.254385	 0.944414

20 16 13 17 F

17 13 10 7 F

11 7 4 3 F

1 2 3 5 F

7 4 3 2 F

