%nprocshared=1
%mem=2GB
#HF/6-31G* nosymm scf=tight 

Mol

0 1
H	 0.080339	 -0.121822	 -0.435661
N	 -0.626943	 -0.667432	 -0.000092
C	 -1.979713	 -0.158776	 0.000050
C	 -0.274589	 -1.849402	 0.561119
H	 -2.520245	 -0.492427	 -0.879443
H	 -1.934741	 0.918111	 -0.004428
H	 -2.517790	 -0.485056	 0.883818
C	 1.198373	 -2.186957	 0.445262
O	 -1.056914	 -2.576718	 1.108105
H	 1.804174	 -1.428799	 0.931632
H	 1.375854	 -3.142117	 0.916290
H	 1.498915	 -2.238916	 -0.596521

3 2 4 9 F

