%nprocshared=1
%mem=2GB
#HF/6-31G* nosymm scf=tight 

Mol

0 1
O	 1.825465	 1.324323	 -0.951462
C	 0.788116	 1.716284	 -1.379704
C	 -0.516134	 0.957269	 -1.353318
O	 0.640172	 2.906476	 -1.947763
C	 -0.823008	 0.326187	 0.001381
H	 -1.299814	 1.647936	 -1.652547
H	 -0.470175	 0.205508	 -2.136556
C	 0.228051	 0.675743	 1.055964
H	 -0.887316	 -0.751352	 -0.112464
H	 -1.803007	 0.653217	 0.334491
C	 1.548757	 -0.068942	 0.853382
H	 0.415891	 1.748350	 1.040929
H	 -0.161981	 0.449689	 2.047255
C	 2.129665	 0.117067	 -0.547759
H	 1.396271	 -1.128995	 1.043581
H	 2.270512	 0.272410	 1.592088
H	 1.444617	 -0.247338	 -1.308109
H	 3.065077	 -0.422225	 -0.660103
H	 2.325387	 1.165343	 -0.755414
C	 1.792514	 3.724689	 -2.034891
H	 2.180449	 3.940881	 -1.049855
H	 1.472688	 4.634305	 -2.518819
H	 2.560106	 3.239076	 -2.620117

15 11 8 12 F

9 5 8 12 F

1 2 3 6 F

1 2 4 20 F

