%nprocshared=1
%mem=2GB
#HF/6-31G* nosymm scf=tight 

Mol

0 1
O	 -2.324811	 1.361668	 -0.277141
C	 -2.105949	 0.203097	 -0.092081
C	 -0.889235	 -0.467034	 -0.705952
C	 -3.002726	 -0.644460	 0.782455
C	 -0.390190	 -1.617489	 0.183178
H	 -0.111479	 0.283355	 -0.797137
H	 -1.118739	 -0.839001	 -1.700434
C	 0.856768	 -2.294476	 -0.390756
H	 -0.187624	 -1.218288	 1.170594
H	 -1.178901	 -2.359186	 0.299650
C	 1.356328	 -3.494845	 0.421407
H	 1.655896	 -1.560302	 -0.475065
H	 0.640287	 -2.627335	 -1.403766
C	 1.878745	 -3.144215	 1.815730
H	 2.152453	 -3.978790	 -0.138659
H	 0.557253	 -4.228473	 0.507177
H	 2.672323	 -2.404021	 1.760313
H	 2.282386	 -4.023990	 2.307126
H	 1.098227	 -2.744926	 2.454596
H	 -3.496582	 -1.399307	 0.176174
H	 -3.747939	 -0.023774	 1.260148
H	 -2.421318	 -1.168775	 1.535358

6 3 5 8 F

3 5 8 12 F

12 8 11 15 F

