%nprocshared=1
%mem=2GB
#HF/6-31G* nosymm scf=tight 

Mol

0 1
O	 0.516020	 0.365905	 2.129833
C	 0.162985	 0.730038	 1.040119
C	 -0.847083	 1.853917	 0.903208
N	 0.623947	 0.147590	 -0.102813
H	 -1.737008	 1.526602	 0.376918
H	 -1.119724	 2.165730	 1.899946
H	 -0.431555	 2.700632	 0.367493
C	 1.665360	 -0.855771	 0.000151
C	 0.410725	 0.684985	 -1.428705
H	 2.465253	 -0.618490	 -0.692587
H	 1.257730	 -1.821716	 -0.242189
H	 2.081488	 -0.891645	 1.004627
H	 0.356719	 -0.132463	 -2.137860
H	 -0.516329	 1.232374	 -1.490914
H	 1.222011	 1.342425	 -1.735952

8 4 2 3 F

