%nprocshared=1
%mem=2GB
#HF/6-31G* nosymm scf=tight 

Mol

0 1
H	 -2.577606	 0.247184	 1.509904
O	 -1.840915	 -0.185680	 1.103718
C	 -2.061112	 -1.573124	 1.079922
C	 -2.314162	 -2.117660	 -0.321567
H	 -1.164554	 -2.020468	 1.489485
H	 -2.885707	 -1.839461	 1.740140
C	 -1.311226	 -1.629091	 -1.369559
H	 -2.296620	 -3.203551	 -0.277973
H	 -3.320097	 -1.828368	 -0.621188
C	 -1.447305	 -0.132944	 -1.665947
H	 -1.449230	 -2.194701	 -2.286841
H	 -0.297815	 -1.834013	 -1.024094
C	 -1.547800	 0.762646	 -0.425721
H	 -0.604854	 0.189369	 -2.275239
H	 -2.336531	 0.019941	 -2.273897
C	 -2.825123	 0.580710	 0.398793
H	 -0.690915	 0.559056	 0.213118
H	 -1.458396	 1.805248	 -0.727095
C	 -4.079391	 1.067997	 -0.329766
H	 -2.724998	 1.120102	 1.339613
H	 -2.955725	 -0.466567	 0.660434
C	 -4.176801	 0.550184	 -1.764355
H	 -4.961717	 0.758095	 0.226067
H	 -4.091130	 2.155970	 -0.337542
H	 -4.200147	 -0.535678	 -1.788485
H	 -5.076633	 0.911010	 -2.252968
H	 -3.326166	 0.874525	 -2.357304

14 10 7 4 F

14 10 13 16 F

10 7 4 8 F

8 4 3 2 F

10 13 16 20 F

20 16 19 22 F

