%nprocshared=1
%mem=2GB
#HF/6-31G* nosymm scf=tight 

Mol

0 1
H	 -2.798360	 -0.862255	 -0.071053
N	 -1.863561	 -0.715187	 0.256814
C	 -1.344686	 0.554728	 -0.219830
H	 -1.300452	 -1.461917	 -0.101532
C	 0.081427	 0.741154	 0.254071
H	 -1.362155	 0.656231	 -1.305829
H	 -1.952773	 1.354456	 0.191809
O	 0.282132	 2.100496	 0.516739
H	 0.258169	 0.155526	 1.155980
H	 0.770133	 0.399913	 -0.515651
C	 1.584679	 2.428627	 0.881803
H	 1.616930	 3.495039	 1.059064
H	 1.885125	 1.912050	 1.791672
H	 2.292895	 2.180225	 0.094062

6 3 2 4 F

5 8 11 13 F

11 8 5 3 F

