%nprocshared=1
%mem=2GB
#HF/6-31G* nosymm scf=tight 

Mol

0 1
H	 -3.457960	 0.166880	 1.449720
O	 -3.367910	 -0.300316	 2.267454
C	 -3.043259	 -1.643282	 2.012310
C	 -1.609705	 -1.833855	 1.529264
H	 -3.184960	 -2.163733	 2.950780
H	 -3.740919	 -2.074362	 1.295219
C	 -0.693410	 -0.641206	 1.813624
H	 -1.203489	 -2.726191	 1.998404
H	 -1.635405	 -2.022665	 0.457323
C	 -1.060904	 0.596381	 0.990129
H	 0.334900	 -0.923328	 1.605411
H	 -0.741849	 -0.392061	 2.873776
C	 -2.554888	 0.940116	 0.976055
H	 -0.498269	 1.451986	 1.359221
H	 -0.734219	 0.439030	 -0.035648
C	 -3.443876	 -0.078800	 0.257730
H	 -2.894282	 1.031179	 2.005780
H	 -2.693663	 1.921425	 0.524823
C	 -4.934138	 0.252592	 0.361334
H	 -3.266910	 -1.068255	 0.676982
H	 -3.169998	 -0.139594	 -0.792792
C	 -5.823362	 -0.759429	 -0.360302
H	 -5.220101	 0.300620	 1.409860
H	 -5.111377	 1.244915	 -0.048262
H	 -5.693248	 -1.757437	 0.048688
H	 -6.873003	 -0.498309	 -0.266991
H	 -5.587007	 -0.804339	 -1.419775

14 10 7 4 F

14 10 13 16 F

10 7 4 8 F

10 13 16 20 F

20 16 19 22 F

4 3 2 1 F

