%nprocshared=1
%mem=2GB
#HF/6-31G* nosymm scf=tight 

Mol

0 1
H	 -0.000158	 1.970498	 0.756846
O	 -0.000074	 1.880206	 -0.189275
C	 -0.000015	 0.544847	 -0.545111
C	 1.396829	 -0.040222	 -0.364816
C	 -0.562264	 0.383042	 -1.953548
H	 -0.660990	 0.023197	 0.130978
F	 1.763448	 0.070427	 0.894109
F	 1.450860	 -1.313304	 -0.694516
F	 2.279840	 0.614754	 -1.101630
F	 -1.795765	 0.839663	 -1.992378
F	 -0.580907	 -0.874436	 -2.341852
F	 0.151938	 1.074284	 -2.827434

7 4 3 6 F

