%nprocshared=1
%mem=2GB
#HF/6-31G* nosymm scf=tight 

Mol

0 1
H	 -0.367348	 2.047014	 -0.308205
C	 0.352277	 1.337084	 0.083769
N	 -0.000016	 0.000074	 -0.335546
H	 1.328359	 1.600444	 -0.307950
H	 0.381933	 1.450534	 1.172486
C	 -1.426502	 -0.153220	 -0.508480
C	 0.733416	 -0.407935	 -1.511880
H	 -1.658652	 -1.183653	 -0.752744
H	 -1.937651	 0.094149	 0.415099
H	 -1.832491	 0.483079	 -1.301689
H	 1.798831	 -0.346675	 -1.320797
H	 0.496597	 -1.437803	 -1.754217
H	 0.510747	 0.206988	 -2.390068
