%nprocshared=1
%mem=2GB
#HF/6-31G* nosymm scf=tight 

Mol

0 1
H	 -3.420663	 1.227371	 -1.044276
O	 -3.452007	 0.283848	 -0.965577
C	 -3.181085	 -0.079926	 0.364119
C	 -1.765924	 0.277073	 0.805136
H	 -3.327791	 -1.152017	 0.410903
H	 -3.905698	 0.375695	 1.036898
C	 -0.677594	 -0.417312	 -0.014550
H	 -1.637766	 1.358238	 0.744969
H	 -1.659588	 0.017670	 1.857098
C	 0.738335	 -0.034840	 0.421385
H	 -0.814977	 -0.178223	 -1.064632
H	 -0.802730	 -1.495410	 0.071702
C	 1.822265	 -0.738362	 -0.399735
H	 0.853533	 1.043532	 0.342250
H	 0.871597	 -0.279636	 1.474438
C	 2.493592	 0.139641	 -1.462084
H	 1.395940	 -1.618183	 -0.879170
H	 2.589276	 -1.105651	 0.278946
C	 3.750922	 -0.467688	 -2.087126
H	 2.756409	 1.091182	 -1.006247
H	 1.774703	 0.368166	 -2.246417
H	 4.483521	 -0.718242	 -1.324460
H	 4.216742	 0.232453	 -2.773895
H	 3.531446	 -1.372068	 -2.644881

20 16 13 17 F

13 10 7 11 F

11 7 4 3 F

1 2 3 5 F

7 4 3 2 F

