%nprocshared=1
%mem=2GB
#HF/6-31G* nosymm scf=tight 

Mol

0 1
H	 -2.798360	 -0.862255	 -0.071053
N	 -1.863561	 -0.715187	 0.256814
C	 -1.344686	 0.554728	 -0.219830
H	 -1.300452	 -1.461917	 -0.101532
C	 -1.103341	 0.486837	 -1.713242
H	 -2.001355	 1.401587	 -0.015822
H	 -0.398009	 0.750231	 0.274500
O	 -0.088814	 -0.446451	 -1.951562
H	 -2.015658	 0.187926	 -2.228962
H	 -0.808198	 1.467109	 -2.080927
C	 0.295968	 -0.548357	 -3.285402
H	 1.077210	 -1.293847	 -3.345427
H	 -0.534823	 -0.858547	 -3.916710
H	 0.680852	 0.397273	 -3.661511

8 5 3 6 F

5 8 11 13 F

11 8 5 3 F

