%nprocshared=1
%mem=2GB
#HF/6-31G* nosymm scf=tight 
prop=(read,field)

Mol

0 1
O	 -1.276110	 1.052750	 -0.768341
C	 -1.204940	 0.067413	 -0.106162
C	 -2.388295	 -0.672089	 0.458032
O	 -0.067204	 -0.527169	 0.221570
H	 -2.388123	 -1.694021	 0.097136
H	 -3.300679	 -0.174880	 0.164279
H	 -2.315477	 -0.706312	 1.539020
C	 1.170011	 0.034179	 -0.238990
C	 2.160116	 -1.116295	 -0.280095
C	 1.601414	 1.158348	 0.689870
H	 1.007838	 0.423676	 -1.233223
H	 1.807855	 -1.901245	 -0.939650
H	 3.121731	 -0.769035	 -0.643467
H	 2.299195	 -1.538055	 0.709566
H	 2.548952	 1.572183	 0.359827
H	 0.868451	 1.955040	 0.694682
H	 1.724543	 0.787368	 1.702402

@grid.dat /N
