%nprocshared=1
%mem=2GB
#HF/6-31G* nosymm scf=tight 

Mol

0 1
H	 -4.164257	 -1.043376	 -2.447264
C	 -4.431347	 -0.125221	 -1.909421
C	 -3.399580	 0.358141	 -0.922290
O	 -5.469458	 0.411725	 -2.123352
C	 -4.015009	 0.748661	 0.428634
H	 -2.646604	 -0.413186	 -0.809187
H	 -2.919685	 1.231175	 -1.362933
C	 -4.902224	 1.994114	 0.357958
H	 -4.599125	 -0.089996	 0.795716
H	 -3.219968	 0.905056	 1.156101
C	 -6.253274	 1.803461	 1.050150
H	 -5.062659	 2.258041	 -0.685331
H	 -4.386047	 2.840886	 0.806374
C	 -7.144331	 3.045428	 0.963640
H	 -6.759475	 0.950440	 0.605350
H	 -6.089580	 1.551128	 2.097010
C	 -8.476090	 2.930578	 1.714174
H	 -7.340708	 3.275648	 -0.082366
H	 -6.595566	 3.895780	 1.362978
C	 -9.441535	 1.892099	 1.140506
H	 -8.962502	 3.902772	 1.700334
H	 -8.281521	 2.704290	 2.760528
H	 -9.641833	 2.084110	 0.089658
H	 -9.050397	 0.883621	 1.223924
H	 -10.390864	 1.916855	 1.666962

6 3 5 8 F

6 3 2 4 F

12 8 11 14 F

8 11 14 18 F

20 17 14 18 F

