%nprocshared=1
%mem=2GB
#HF/6-31G* nosymm scf=tight 

Mol

0 1
H	 -0.367348	 2.047014	 -0.308205
C	 0.352277	 1.337084	 0.083769
N	 -0.000016	 0.000074	 -0.335546
H	 1.328359	 1.600444	 -0.307950
H	 0.381933	 1.450534	 1.172486
C	 -1.308896	 -0.046931	 -0.946195
C	 1.013050	 -0.584373	 -1.184237
H	 -1.567914	 -1.072879	 -1.182190
H	 -2.051500	 0.334056	 -0.254204
H	 -1.372375	 0.539632	 -1.868582
H	 1.965285	 -0.595869	 -0.666076
H	 0.749090	 -1.609168	 -1.419947
H	 1.146613	 -0.043165	 -2.126671
