%nprocshared=1
%mem=2GB
#HF/6-31G* nosymm scf=tight 

Mol

0 1
H	 -2.499100	 -0.730091	 -0.745082
O	 -2.347518	 -0.290803	 0.079804
C	 -1.184022	 0.487508	 -0.006784
C	 0.062599	 -0.378592	 0.031606
H	 -1.176523	 1.099369	 -0.904519
H	 -1.187323	 1.153111	 0.844927
O	 1.016315	 0.202999	 -0.800235
H	 -0.173588	 -1.390187	 -0.304357
H	 0.425344	 -0.451576	 1.055165
C	 2.234938	 -0.469694	 -0.840018
H	 2.116292	 -1.486385	 -1.210007
H	 2.886169	 0.073405	 -1.510722
H	 2.697410	 -0.512224	 0.143904

1 2 3 5 F

10 7 4 8 F

4 7 10 13 F

