%nprocshared=1
%mem=2GB
#HF/6-31G* nosymm scf=tight 

Mol

0 1
O	 0.437669	 1.089823	 1.149717
C	 0.386283	 0.030910	 0.611379
C	 1.522352	 -0.960218	 0.526078
O	 -0.698257	 -0.426125	 0.001050
C	 2.791545	 -0.475026	 1.215066
H	 1.697131	 -1.164466	 -0.526054
H	 1.171872	 -1.894157	 0.955249
H	 3.146645	 0.447873	 0.772882
H	 3.574293	 -1.220702	 1.125133
H	 2.616741	 -0.288703	 2.267706
C	 -1.853104	 0.406779	 0.000512
C	 -3.066105	 -0.499277	 -0.000959
H	 -1.828410	 1.043074	 -0.873618
H	 -1.829857	 1.042383	 0.875188
H	 -3.071820	 -1.133106	 -0.880383
H	 -3.972708	 0.097145	 -0.001528
H	 -3.073405	 -1.133813	 0.877999

4 2 3 6 F

11 4 2 3 F

