%nprocshared=24
%mem=2GB
#HF/6-31G* nosymm scf=tight 

Mol

0 1
H	 -2.463887	 -1.404751	 3.174456
C	 -2.393282	 -1.145213	 2.135980
C	 -1.224516	 -1.150904	 1.538115
H	 -3.292956	 -0.884230	 1.609638
O	 -0.192941	 -0.376778	 1.966066
H	 -1.008520	 -1.778184	 0.691891
C	 0.946735	 -0.308137	 1.180025
C	 1.815789	 -1.534192	 1.347569
H	 1.549542	 0.565337	 1.402817
H	 0.632698	 -0.263441	 0.148084
F	 1.046723	 -2.600888	 1.510891
F	 2.574753	 -1.746349	 0.285556
F	 2.607262	 -1.440250	 2.395450

11 8 7 9 F

3 5 7 9 F

6 3 5 7 F

