%nprocshared=1
%mem=2GB
#HF/6-31G* nosymm scf=tight 

Mol

0 1
H	 -2.698709	 -0.000305	 0.034435
C	 -1.693833	 0.000034	 0.434417
O	 -0.828952	 -0.000968	 -0.659236
H	 -1.574200	 0.882896	 1.055746
H	 -1.574147	 -0.881698	 1.057355
C	 -0.242249	 1.216784	 -1.055926
C	 -1.232068	 2.140257	 -1.763297
C	 0.487102	 1.915845	 0.089639
H	 0.500064	 0.907485	 -1.782107
H	 -1.766601	 1.597845	 -2.535703
H	 -0.701988	 2.964235	 -2.230536
H	 -1.958233	 2.566411	 -1.078285
H	 1.141907	 1.217970	 0.600186
H	 1.092333	 2.729635	 -0.297538
H	 -0.199014	 2.337488	 0.817171

9 6 3 2 F

