%nprocshared=1
%mem=2GB
#HF/6-31G* nosymm scf=tight 

Mol

0 1
O	 1.164635	 1.386500	 -0.287543
C	 0.973461	 0.358006	 -0.852072
C	 -0.315929	 -0.426276	 -0.835667
O	 1.895499	 -0.248429	 -1.588997
C	 -1.412532	 0.227344	 -0.000452
H	 -0.630887	 -0.554787	 -1.867675
H	 -0.084824	 -1.423457	 -0.471008
C	 -2.706999	 -0.587347	 -0.000541
H	 -1.605851	 1.225558	 -0.380850
H	 -1.058795	 0.356091	 1.017781
C	 -3.956778	 0.291888	 0.000910
H	 -2.726114	 -1.239230	 -0.871609
H	 -2.725217	 -1.240844	 0.869333
H	 -3.985213	 0.933254	 -0.875158
H	 -4.860123	 -0.309979	 0.000519
H	 -3.984618	 0.931166	 0.878514
C	 3.157831	 0.385426	 -1.688425
H	 3.057213	 1.364994	 -2.133184
H	 3.759003	 -0.251385	 -2.318514
H	 3.611851	 0.483232	 -0.712819

1 2 3 6 F

9 5 3 6 F

1 2 4 17 F

