%nprocshared=1
%mem=2GB
#HF/6-31G* nosymm scf=tight 

Mol

0 1
H	 -2.646374	 -0.642757	 1.268656
C	 -2.083525	 -0.384536	 0.393091
O	 -0.807605	 -0.127164	 0.768327
F	 -2.118945	 -1.383102	 -0.486752
F	 -2.621877	 0.670592	 -0.209486
C	 0.084052	 0.273579	 -0.209957
C	 1.360636	 0.703610	 0.501076
Cl	 -0.581412	 1.611576	 -1.160818
H	 0.328318	 -0.521855	 -0.892154
F	 1.155671	 1.809373	 1.184755
F	 2.288336	 0.947475	 -0.402993
F	 1.808036	 -0.220073	 1.316316

10 7 6 9 F

6 3 2 4 F

