%nprocshared=1
%mem=2GB
#HF/6-31G* nosymm scf=tight 

Mol

0 1
H	 2.452744	 1.816153	 -1.851436
O	 2.809603	 1.325440	 -2.577331
C	 3.247830	 0.068031	 -2.129074
C	 2.104074	 -0.885953	 -1.802789
H	 3.845370	 -0.339633	 -2.934326
H	 3.902105	 0.178288	 -1.265045
C	 1.221199	 -0.424653	 -0.640635
H	 1.496157	 -1.013308	 -2.694745
H	 2.531121	 -1.859590	 -1.568208
C	 0.115918	 -1.429151	 -0.302766
H	 0.775989	 0.534667	 -0.889349
H	 1.839837	 -0.263898	 0.242420
C	 0.579824	 -2.886769	 -0.200376
H	 -0.360345	 -1.136649	 0.631291
H	 -0.654754	 -1.366154	 -1.068139
C	 0.727785	 -3.417141	 1.228361
H	 -0.136855	 -3.511425	 -0.729518
H	 1.526011	 -3.000648	 -0.727253
C	 1.089510	 -4.903113	 1.278129
H	 -0.203924	 -3.256926	 1.769064
H	 1.489685	 -2.852392	 1.760217
C	 1.244105	 -5.433542	 2.703053
H	 0.324002	 -5.477389	 0.760738
H	 2.015148	 -5.066637	 0.730097
H	 0.323796	 -5.314109	 3.267847
H	 1.498359	 -6.488998	 2.704892
H	 2.028698	 -4.903778	 3.236090

14 10 7 4 F

10 7 4 8 F

8 4 3 2 F

10 13 16 20 F

20 16 19 22 F

4 3 2 1 F

