%nprocshared=1
%mem=2GB
#HF/6-31G* nosymm scf=tight 

Mol

0 1
H	 3.083879	 -1.346558	 0.395444
O	 2.172668	 -1.603300	 0.415122
C	 1.365383	 -0.540424	 0.207814
C	 0.726160	 0.122569	 1.247592
C	 1.185348	 -0.116622	 -1.097333
H	 0.867613	 -0.208859	 2.262571
C	 -0.091886	 1.207866	 0.981883
H	 1.678507	 -0.627839	 -1.901402
C	 0.364714	 0.970748	 -1.354712
H	 -0.581260	 1.712936	 1.794775
C	 -0.277505	 1.638242	 -0.319445
C	 0.166924	 1.431305	 -2.754582
H	 -0.912479	 2.481018	 -0.528114
O	 0.795187	 1.043702	 -3.687103
H	 -0.621634	 2.178237	 -2.886932

11 9 12 14 F

