%nprocshared=1
%mem=2GB
#HF/6-31G* nosymm scf=tight 

Mol

0 1
O	 0.451807	 0.686399	 -0.927619
C	 0.028650	 0.075053	 -0.000277
C	 -1.233602	 -0.752807	 0.000328
O	 0.626659	 0.041926	 1.183441
C	 -2.501530	 0.091881	 0.000126
H	 -1.193807	 -1.406641	 -0.865785
H	 -1.193516	 -1.405779	 0.867015
H	 -2.545121	 0.729328	 -0.874513
H	 -3.377167	 -0.548497	 0.000561
H	 -2.544818	 0.730135	 0.874258
C	 1.826747	 0.781696	 1.318043
H	 2.574304	 0.421852	 0.625883
H	 2.154361	 0.629988	 2.334663
H	 1.648540	 1.831477	 1.134540

11 4 2 3 F

