%nprocshared=1
%mem=2GB
#HF/6-31G* nosymm scf=tight 

Mol

0 1
H	 2.332609	 0.878551	 -1.051851
C	 2.357710	 0.000000	 -0.417167
C	 1.175432	 0.000000	 0.532082
H	 3.291263	 0.000000	 0.136880
H	 2.332609	 -0.878551	 -1.051851
O	 0.000000	 0.000000	 -0.221444
H	 1.206604	 0.877321	 1.177902
H	 1.206604	 -0.877321	 1.177902
C	 -1.175432	 0.000000	 0.532082
C	 -0.816006	 -0.225158	 1.987750
H	 -1.845961	 -0.783946	 0.180562
H	 -1.697607	 0.949029	 0.411982
H	 -0.306548	 -1.174447	 2.108619
H	 -1.709445	 -0.231016	 2.604372
H	 -0.157986	 0.560958	 2.340363
