%nprocshared=1
%mem=2GB
#HF/6-31G* nosymm scf=tight 

Mol

0 1
H	 2.581728	 1.958545	 -1.024742
C	 2.151747	 1.111359	 -0.497837
C	 0.635219	 1.097529	 -0.662372
H	 2.411935	 1.189589	 0.551899
H	 2.616027	 0.212851	 -0.889834
N	 -0.000257	 -0.000071	 0.054619
H	 0.247063	 2.030172	 -0.272643
H	 0.372729	 1.079640	 -1.724194
C	 -1.363055	 0.315058	 0.462241
C	 0.088246	 -1.262687	 -0.666925
C	 -2.412078	 -0.285320	 -0.468531
H	 -1.482241	 1.391144	 0.451970
H	 -1.549931	 -0.001174	 1.492681
C	 0.088952	 -2.474380	 0.259920
H	 1.013404	 -1.270312	 -1.229222
H	 -0.715428	 -1.353555	 -1.403565
H	 -2.262839	 0.075384	 -1.480151
H	 -2.369300	 -1.368867	 -0.491760
H	 -3.410332	 -0.003975	 -0.144961
H	 0.921510	 -2.413778	 0.951880
H	 -0.823238	 -2.547196	 0.842293
H	 0.183828	 -3.390921	 -0.315647
