%nprocshared=1
%mem=2GB
#HF/6-31G* nosymm scf=tight 

Mol

0 1
H	 2.095845	 0.069849	 0.369554
C	 1.193199	 -0.484033	 0.210393
C	 1.185326	 -1.867295	 0.209005
C	 0.000000	 0.183220	 0.000000
H	 2.101477	 -2.404452	 0.370547
C	 0.000000	 -2.555744	 0.000000
N	 0.000000	 1.642018	 0.000000
C	 -1.193199	 -0.484034	 -0.210393
H	 0.000000	 -3.630640	 0.000000
C	 -1.185326	 -1.867295	 -0.209005
O	 1.057097	 2.196749	 0.000000
O	 -1.057097	 2.196749	 0.000000
H	 -2.095845	 0.069849	 -0.369554
H	 -2.101477	 -2.404452	 -0.370547
