%nprocshared=1
%mem=2GB
#HF/6-31G* nosymm scf=tight 

Mol

0 1
H	 -2.698709	 -0.000305	 0.034435
C	 -1.693833	 0.000034	 0.434417
O	 -0.828952	 -0.000968	 -0.659236
H	 -1.574200	 0.882896	 1.055746
H	 -1.574147	 -0.881698	 1.057355
C	 -0.410773	 -1.238364	 -1.186949
C	 0.616251	 -1.936712	 -0.297877
C	 -1.583854	 -2.148900	 -1.544387
H	 0.084583	 -0.958121	 -2.108967
H	 1.407050	 -1.246928	 -0.023315
H	 1.061803	 -2.771033	 -0.830442
H	 0.172899	 -2.329860	 0.611540
H	 -2.316176	 -1.605817	 -2.131943
H	 -1.233624	 -2.992026	 -2.131706
H	 -2.077739	 -2.547629	 -0.664084

9 6 3 2 F

