%nprocshared=1
%mem=2GB
#HF/6-31G* nosymm scf=tight 

Mol

0 1
H	 -2.240291	 0.559484	 0.604969
C	 -2.008299	 -0.205926	 -0.129530
O	 -0.774054	 0.001095	 -0.743181
H	 -2.752932	 -0.160639	 -0.912984
H	 -2.076115	 -1.178578	 0.348530
C	 0.384321	 0.176573	 0.053002
C	 1.528894	 0.113590	 -0.955957
C	 0.375344	 1.541753	 0.748266
C	 0.527726	 -0.953813	 1.077101
H	 1.415851	 0.895941	 -1.697968
H	 1.521520	 -0.841080	 -1.469694
H	 2.489298	 0.236391	 -0.465849
H	 0.201540	 2.330707	 0.024130
H	 1.330478	 1.724775	 1.229747
H	 -0.390684	 1.606239	 1.513509
H	 0.461402	 -1.917920	 0.583998
H	 1.490053	 -0.890497	 1.574545
H	 -0.237253	 -0.909896	 1.844896

2 3 6 7 F

