%nprocshared=1
%mem=2GB
#HF/6-31G* nosymm scf=tight 

Mol

0 1
H	 -3.269016	 -0.876744	 0.468090
C	 -2.809304	 0.000122	 0.025886
N	 -1.391456	 0.000019	 0.300661
H	 -3.037557	 -0.000063	 -1.044252
H	 -3.269223	 0.876956	 0.468000
C	 -0.630353	 -0.670910	 -0.734890
C	 -1.083639	 -0.552912	 1.605009
H	 -0.905170	 -1.727081	 -0.815421
H	 -0.848044	 -0.200492	 -1.688242
C	 0.860000	 -0.565681	 -0.451445
H	 -1.631946	 0.003563	 2.358170
H	 -1.388461	 -1.601274	 1.679374
C	 0.406715	 -0.447683	 1.888454
H	 1.408308	 -1.122156	 -1.204605
H	 1.164822	 0.482681	 -0.525808
N	 1.167817	 -1.118613	 0.852904
H	 0.624406	 -0.918102	 2.841806
H	 0.681531	 0.608487	 1.968985
C	 2.585665	 -1.118717	 1.127679
H	 3.107763	 -1.683063	 0.363022
H	 2.774862	 -1.596280	 2.082647
H	 3.015127	 -0.112825	 1.159949
