%nprocshared=1
%mem=2GB
#HF/6-31G* nosymm scf=tight 

Mol

0 1
H	 2.451652	 -2.178703	 0.543297
O	 2.773837	 -1.297590	 0.410870
C	 1.759943	 -0.431505	 0.213148
C	 0.943700	 -0.144281	 1.302731
C	 1.516681	 0.162358	 -1.010078
H	 1.153393	 -0.618665	 2.242862
C	 -0.110613	 0.734454	 1.163755
H	 2.129377	 -0.040691	 -1.866174
C	 0.449494	 1.039884	 -1.114390
H	 -0.735727	 0.950495	 2.010169
C	 -0.375738	 1.344182	 -0.055173
N	 0.196555	 1.665372	 -2.410644
H	 -1.189788	 2.027932	 -0.178516
O	 1.024272	 1.532310	 -3.261063
O	 -0.821428	 2.272178	 -2.543913

11 9 12 14 F

