%nprocshared=1
%mem=2GB
#HF/6-31G* nosymm scf=tight 

Mol

0 1
H	 -1.692583	 2.406285	 0.639110
C	 -0.672041	 2.042119	 0.661494
C	 -0.603454	 0.661669	 0.000000
H	 -0.348548	 1.994001	 1.694199
H	 -0.043341	 2.753797	 0.140253
C	 0.763625	 0.112519	 0.000000
H	 -1.245119	 -0.043215	 0.515726
H	 -0.941847	 0.711767	 -1.028373
N	 1.813038	 -0.320305	 0.000000
