%nprocshared=1
%mem=2GB
#HF/6-31G* nosymm scf=tight 

Mol

0 1
O	 -0.644987	 -1.652990	 1.664992
C	 -1.514987	 -1.440192	 0.882411
C	 -2.775474	 -2.260464	 0.784449
O	 -1.481751	 -0.454642	 0.000584
H	 -3.283566	 -2.233162	 1.740984
H	 -3.433286	 -1.897333	 0.008654
H	 -2.505502	 -3.290827	 0.586090
C	 -0.334255	 0.388708	 0.000906
C	 0.891947	 -0.504646	 0.000751
H	 -0.365390	 1.025305	 -0.873475
H	 -0.365484	 1.024911	 0.875569
C	 0.838286	 -1.556101	 -1.109219
H	 0.972990	 -0.989855	 0.969484
H	 1.777328	 0.114301	 -0.115286
C	 0.024466	 -2.791832	 -0.720639
H	 0.411379	 -1.114713	 -2.008114
H	 1.850055	 -1.861559	 -1.370178
C	 -0.030218	 -3.841411	 -1.829810
H	 -0.986989	 -2.488440	 -0.459898
H	 0.451084	 -3.235512	 0.176141
H	 -0.483497	 -3.437115	 -2.730419
H	 -0.613651	 -4.704472	 -1.524904
H	 0.965321	 -4.190045	 -2.089361

13 9 8 10 F

2 4 8 10 F

19 15 12 16 F

1 2 4 8 F

