%nprocshared=1
%mem=2GB
#HF/6-31G* nosymm scf=tight 

Mol

0 1
O	 -1.276010	 1.052711	 -0.768302
C	 -1.204840	 0.067374	 -0.106123
C	 -2.388195	 -0.672128	 0.458071
O	 -0.067104	 -0.527208	 0.221609
H	 -2.388023	 -1.694060	 0.097175
H	 -3.300579	 -0.174919	 0.164318
H	 -2.315377	 -0.706351	 1.539059
C	 1.170111	 0.034140	 -0.238951
C	 1.253628	 1.419982	 0.375911
C	 1.190366	 0.054927	 -1.759413
H	 1.973489	 -0.587102	 0.128676
H	 1.220061	 1.361483	 1.457899
H	 2.182093	 1.901610	 0.087259
H	 0.427724	 2.038421	 0.041144
H	 2.114585	 0.499846	 -2.114212
H	 1.124387	 -0.949423	 -2.158041
H	 0.360286	 0.640462	 -2.141676

8 4 2 1 F

