%nprocshared=1
%mem=2GB
#HF/6-31G* nosymm scf=tight 

Mol

0 1
H	 -2.698709	 -0.000305	 0.034435
C	 -1.693833	 0.000034	 0.434417
O	 -0.828952	 -0.000968	 -0.659236
H	 -1.574200	 0.882896	 1.055746
H	 -1.574147	 -0.881698	 1.057355
C	 -0.579194	 1.216551	 -1.322389
C	 -1.759471	 1.668725	 -2.179945
C	 -0.097792	 2.312171	 -0.373269
H	 0.239689	 0.970940	 -1.988074
H	 -2.106170	 0.851745	 -2.803557
H	 -1.456535	 2.486059	 -2.826807
H	 -2.592961	 2.019740	 -1.579739
H	 0.705100	 1.940362	 0.254090
H	 0.277911	 3.157079	 -0.941990
H	 -0.892745	 2.678713	 0.268243

9 6 3 2 F

