%nprocshared=1
%mem=2GB
#HF/6-31G* nosymm scf=tight 

Mol

0 1
H	 -2.459674	 0.583400	 1.514094
O	 -1.744861	 -0.009749	 1.334409
C	 -1.659521	 -0.971450	 2.355145
C	 -2.778575	 -2.005661	 2.301735
H	 -0.703292	 -1.460289	 2.219732
H	 -1.640640	 -0.489644	 3.332021
C	 -3.014579	 -2.595912	 0.909337
H	 -2.544308	 -2.803663	 3.001505
H	 -3.693971	 -1.533207	 2.654163
C	 -3.586158	 -1.573680	 -0.077150
H	 -3.692778	 -3.440847	 0.989935
H	 -2.074754	 -2.984344	 0.516667
C	 -2.874612	 -0.215732	 -0.081804
H	 -3.565216	 -1.994339	 -1.080871
H	 -4.635262	 -1.411756	 0.161309
C	 -3.034785	 0.600176	 1.203932
H	 -1.813956	 -0.386320	 -0.254213
H	 -3.227110	 0.371823	 -0.928185
C	 -4.465221	 1.099239	 1.418936
H	 -2.358373	 1.453232	 1.174393
H	 -2.737527	 0.005291	 2.064195
C	 -5.411106	 0.710962	 0.283063
H	 -4.847259	 0.703375	 2.357459
H	 -4.456195	 2.181939	 1.526468
H	 -5.467273	 -0.368187	 0.171231
H	 -6.416738	 1.077069	 0.465559
H	 -5.076338	 1.123259	 -0.664726

14 10 7 4 F

14 10 13 16 F

10 7 4 8 F

8 4 3 2 F

10 13 16 20 F

4 3 2 1 F

