%nprocshared=1
%mem=2GB
#HF/6-31G* nosymm scf=tight 

Mol

0 1
H	 -2.646374	 -0.642757	 1.268656
C	 -2.083525	 -0.384536	 0.393091
O	 -0.807605	 -0.127164	 0.768327
F	 -2.118945	 -1.383102	 -0.486752
F	 -2.621877	 0.670592	 -0.209486
C	 -0.092698	 0.798887	 0.030746
C	 -0.953736	 2.051754	 -0.064644
Cl	 0.276080	 0.170954	 -1.583849
H	 0.839312	 1.063746	 0.498700
F	 -2.010148	 1.827165	 -0.816768
F	 -0.246538	 3.010751	 -0.628234
F	 -1.353939	 2.467801	 1.112095

10 7 6 9 F

9 6 3 2 F

