%nprocshared=1
%mem=2GB
#HF/6-31G* nosymm scf=tight 

Mol

0 1
H	 -1.070890	 -1.366565	 0.180696
O	 -1.422729	 -0.573567	 -0.196946
C	 -0.731407	 0.539437	 0.309156
C	 0.680193	 0.672443	 -0.251532
H	 -1.319765	 1.404033	 0.030086
H	 -0.700012	 0.506517	 1.397677
C	 1.424147	 1.911212	 0.248156
H	 1.241193	 -0.220510	 0.008391
H	 0.614177	 0.702326	 -1.337022
H	 1.571931	 1.878234	 1.323455
H	 2.405774	 1.986535	 -0.207587
H	 0.880110	 2.821926	 0.009648

1 2 3 4 F

