%nprocshared=1
%mem=2GB
#HF/6-31G* nosymm scf=tight 

Mol

0 1
O	 3.225979	 0.970355	 -0.599647
C	 2.701189	 0.057885	 -0.047330
C	 1.245376	 -0.013843	 0.345420
O	 3.347903	 -1.046386	 0.304773
C	 0.455112	 1.231400	 -0.050772
H	 0.838542	 -0.913825	 -0.103701
H	 1.208210	 -0.175333	 1.419774
C	 -0.998893	 1.219485	 0.433193
H	 0.482531	 1.345121	 -1.130325
H	 0.957290	 2.103070	 0.354729
C	 -1.883438	 0.145884	 -0.207175
H	 -1.431207	 2.195402	 0.224832
H	 -1.019646	 1.105716	 1.516076
C	 -1.844671	 -1.184668	 0.547231
H	 -2.910264	 0.506122	 -0.248122
H	 -1.578523	 -0.025492	 -1.237044
C	 -0.493516	 -1.895740	 0.452968
H	 -2.622696	 -1.840483	 0.160166
H	 -2.086393	 -1.011836	 1.594799
C	 0.688971	 -0.972962	 0.746066
H	 -0.478298	 -2.732982	 1.147544
H	 -0.379673	 -2.322610	 -0.541317
H	 1.632033	 -1.505564	 0.671395
H	 0.622666	 -0.556790	 1.747365
H	 0.721599	 -0.142972	 0.045833
C	 4.728119	 -1.109107	 -0.004993
H	 4.882018	 -1.033965	 -1.071845
H	 5.068212	 -2.067527	 0.355250
H	 5.265056	 -0.311663	 0.488280

21 17 14 11 F

17 14 11 15 F

6 3 5 9 F

11 8 5 9 F

2 4 26 27 F

1 2 4 26 F

6 3 2 1 F

