%nprocshared=1
%mem=2GB
#HF/6-31G* nosymm scf=tight 

Mol

0 1
H	 3.303027	 -0.411356	 0.000000
C	 2.242446	 -0.233621	 0.000000
C	 1.362551	 -1.309095	 -0.000000
C	 1.762153	 1.065339	 -0.000000
H	 1.743084	 -2.314441	 -0.000000
C	 -0.000085	 -1.084403	 -0.000000
H	 2.445816	 1.894706	 0.000000
C	 0.394911	 1.289429	 0.000000
H	 -0.696698	 -1.901643	 -0.000000
C	 -0.488460	 0.219100	 0.000000
H	 0.015459	 2.296883	 0.000000
C	 -1.949954	 0.470334	 0.000000
O	 -2.781584	 -0.381627	 0.000000
H	 -2.238022	 1.526388	 0.000000
