%nprocshared=1
%mem=2GB
#HF/6-31G* nosymm scf=tight 

Mol

0 1
O	 -2.821601	 1.309235	 -0.001213
C	 -2.668563	 0.129746	 -0.000350
C	 -3.801572	 -0.864014	 -0.000442
O	 -1.481751	 -0.454642	 0.000584
H	 -4.417280	 -0.689587	 -0.874708
H	 -3.443784	 -1.883046	 -0.000565
H	 -4.417179	 -0.689832	 0.873954
C	 -0.334255	 0.388708	 0.000906
C	 0.891947	 -0.504646	 0.000751
H	 -0.365390	 1.025305	 -0.873475
H	 -0.365484	 1.024911	 0.875569
C	 0.539677	 -1.966109	 -0.282977
H	 1.387126	 -0.421419	 0.964240
H	 1.592627	 -0.139107	 -0.744829
C	 1.763417	 -2.884136	 -0.286854
H	 -0.170880	 -2.320260	 0.461854
H	 0.035025	 -2.038544	 -1.244830
C	 1.411352	 -4.344052	 -0.568918
H	 2.268711	 -2.813250	 0.673734
H	 2.473516	 -2.533039	 -1.032213
H	 0.728036	 -4.734489	 0.179850
H	 2.298536	 -4.969451	 -0.564946
H	 0.934705	 -4.452223	 -1.539029

2 4 8 10 F

16 12 9 13 F

19 15 12 16 F

1 2 4 8 F

