%nprocshared=1
%mem=2GB
#HF/6-31G* nosymm scf=tight 

Mol

0 1
H	 -0.367348	 2.047014	 -0.308205
C	 0.352277	 1.337084	 0.083769
N	 -0.000016	 0.000074	 -0.335546
H	 1.328359	 1.600444	 -0.307950
H	 0.381933	 1.450534	 1.172486
C	 -0.683089	 -0.730468	 0.707521
C	 -0.747455	 0.001204	 -1.572271
H	 -0.867313	 -1.748459	 0.383318
H	 -0.062525	 -0.770182	 1.595658
H	 -1.643572	 -0.283739	 0.984631
H	 -0.173939	 0.495387	 -2.348310
H	 -0.931765	 -1.018342	 -1.891636
H	 -1.713264	 0.510244	 -1.488483
