%nprocshared=1
%mem=2GB
#HF/6-31G* nosymm scf=tight 

Mol

0 1
H	 -3.420663	 1.227371	 -1.044276
O	 -3.452007	 0.283848	 -0.965577
C	 -3.181085	 -0.079926	 0.364119
C	 -1.765924	 0.277073	 0.805136
H	 -3.327791	 -1.152017	 0.410903
H	 -3.905698	 0.375695	 1.036898
C	 -0.677594	 -0.417312	 -0.014550
H	 -1.637766	 1.358238	 0.744969
H	 -1.659588	 0.017670	 1.857098
C	 -0.845431	 -0.222081	 -1.522825
H	 -0.676375	 -1.477368	 0.219948
H	 0.294822	 -0.035879	 0.292547
C	 -1.100911	 1.237718	 -1.907277
H	 0.044778	 -0.589008	 -2.028109
H	 -1.672617	 -0.835684	 -1.877592
C	 -2.443166	 1.802026	 -1.427629
H	 -1.034599	 1.341528	 -2.989184
H	 -0.302103	 1.850826	 -1.495183
C	 -2.580946	 3.319360	 -1.565902
H	 -2.575102	 1.534474	 -0.382019
H	 -3.251981	 1.315176	 -1.968923
H	 -1.777562	 3.833009	 -1.044483
H	 -3.520223	 3.661357	 -1.142071
H	 -2.558252	 3.636775	 -2.603156

20 16 13 17 F

17 13 10 7 F

13 10 7 11 F

1 2 3 5 F

7 4 3 2 F

