%nprocshared=1
%mem=2GB
#HF/6-31G* nosymm scf=tight 

Mol

0 1
H	 0.129065	 -3.479640	 0.339392
O	 0.662010	 -2.691423	 0.377332
C	 -0.140873	 -1.641066	 0.208381
C	 0.624473	 -0.343591	 0.253101
O	 -1.311415	 -1.760838	 0.045586
C	 -0.265902	 0.883932	 0.072916
H	 1.160469	 -0.324199	 1.196343
H	 1.386578	 -0.392873	 -0.520539
C	 -1.728698	 0.646073	 0.462102
H	 -0.209144	 1.219470	 -0.958188
H	 0.135059	 1.692851	 0.673903
C	 -2.482460	 -0.343073	 -0.431425
H	 -2.245265	 1.602650	 0.432430
H	 -1.779332	 0.308348	 1.496285
C	 -1.702028	 -1.636640	 -0.663995
H	 -3.442321	 -0.577621	 0.024314
H	 -2.703274	 0.112617	 -1.393178
H	 -2.254905	 -2.320309	 -1.300578
H	 -1.500470	 -2.146665	 0.273595
H	 -0.747443	 -1.437595	 -1.142937

16 12 9 6 F

12 9 6 10 F

5 3 4 7 F

1 2 3 5 F

