%nprocshared=1
%mem=2GB
#HF/6-31G* nosymm scf=tight 

Mol

0 1
H	 2.157560	 -2.478345	 0.987264
C	 1.714956	 -1.783068	 0.279501
C	 0.653762	 -0.929243	 0.966502
H	 1.269680	 -2.351028	 -0.529767
H	 2.518234	 -1.184537	 -0.136479
N	 -0.000257	 -0.000071	 0.054619
H	 -0.097915	 -1.592941	 1.374992
H	 1.090142	 -0.402793	 1.820381
C	 -1.363055	 0.315058	 0.462241
C	 0.798034	 1.193349	 -0.192638
C	 -2.412078	 -0.285320	 -0.468531
H	 -1.482241	 1.391144	 0.451970
H	 -1.549931	 -0.001174	 1.492681
C	 0.533673	 1.807745	 -1.563722
H	 1.844508	 0.920077	 -0.143972
H	 0.642900	 1.941286	 0.590505
H	 -2.262839	 0.075384	 -1.480151
H	 -2.369300	 -1.368867	 -0.491760
H	 -3.410332	 -0.003975	 -0.144961
H	 0.744795	 1.084284	 -2.343252
H	 -0.495718	 2.129827	 -1.678477
H	 1.167535	 2.676582	 -1.717564
