%nprocshared=1
%mem=2GB
#HF/6-31G* nosymm scf=tight 

Mol

0 1
H	 0.933974	 1.449722	 1.596762
C	 1.123751	 0.813967	 0.722975
C	 0.065331	 0.871482	 -0.349150
O	 2.107886	 0.150352	 0.669946
C	 -1.339775	 0.583656	 0.198860
H	 0.335280	 0.174248	 -1.133947
H	 0.087514	 1.875654	 -0.770229
C	 -1.808407	 -0.848507	 -0.061364
H	 -2.036183	 1.280685	 -0.256307
H	 -1.360094	 0.788874	 1.267089
H	 -1.828843	 -1.063152	 -1.125336
H	 -2.808409	 -1.004529	 0.329750
H	 -1.153967	 -1.577789	 0.406873

6 3 2 4 F

