%nprocshared=1
%mem=2GB
#HF/6-31G* nosymm scf=tight 

Mol

0 1
O	 2.598556	 1.765757	 0.458788
C	 2.005367	 1.462417	 1.448166
C	 0.731382	 0.637645	 1.407509
C	 2.490401	 1.885020	 2.819772
C	 0.291004	 0.242674	 0.000989
H	 0.886900	 -0.246279	 2.024665
H	 -0.049929	 1.206274	 1.910118
C	 -0.994322	 -0.586602	 0.000262
H	 1.089842	 -0.313984	 -0.478718
H	 0.151719	 1.140160	 -0.593373
C	 -2.259874	 0.272531	 0.000494
H	 -1.004862	 -1.240012	 -0.870939
H	 -1.005220	 -1.241071	 0.870675
C	 -3.549786	 -0.549746	 -0.000374
H	 -2.250389	 0.926680	 -0.869574
H	 -2.250838	 0.925513	 0.871430
C	 -4.809590	 0.315458	 -0.000369
H	 -3.560515	 -1.202009	 -0.871156
H	 -3.561123	 -1.202955	 0.869711
H	 -4.844746	 0.956611	 -0.876632
H	 -5.706986	 -0.295590	 -0.001609
H	 -4.845960	 0.954827	 0.877144
H	 2.677463	 1.013760	 3.440685
H	 3.399850	 2.461615	 2.723463
H	 1.734287	 2.481833	 3.321509

15 11 8 12 F

15 11 14 18 F

1 2 3 6 F

9 5 3 6 F

