%nprocshared=1
%mem=2GB
#HF/6-31G* nosymm scf=tight 

Mol

0 1
H	 -3.741024	 6.024666	 0.142378
C	 -4.236752	 5.048523	 0.071527
C	 -4.313488	 4.277401	 1.364621
O	 -4.664717	 4.670265	 -0.970355
C	 -3.911649	 2.805448	 1.196885
H	 -3.693715	 4.778559	 2.099081
H	 -5.346125	 4.329858	 1.707496
C	 -4.902224	 1.994114	 0.357958
H	 -2.930415	 2.767545	 0.733175
H	 -3.800295	 2.347261	 2.178425
C	 -6.253274	 1.803461	 1.050150
H	 -4.467547	 1.021739	 0.135716
H	 -5.057346	 2.480865	 -0.603057
C	 -7.144331	 3.045428	 0.963640
H	 -6.759475	 0.950440	 0.605350
H	 -6.089580	 1.551128	 2.097010
C	 -8.476090	 2.930578	 1.714174
H	 -7.340708	 3.275648	 -0.082366
H	 -6.595566	 3.895780	 1.362978
C	 -9.441535	 1.892099	 1.140506
H	 -8.962502	 3.902772	 1.700334
H	 -8.281521	 2.704290	 2.760528
H	 -9.641833	 2.084110	 0.089658
H	 -9.050397	 0.883621	 1.223924
H	 -10.390864	 1.916855	 1.666962

6 3 5 8 F

6 3 2 4 F

3 5 8 12 F

8 11 14 18 F

20 17 14 18 F

