%nprocshared=1
%mem=2GB
#HF/6-31G* nosymm scf=tight 

Mol

0 1
O	 -2.042549	 -1.228399	 -0.269030
C	 -1.653912	 -0.146171	 0.050137
C	 -0.332303	 0.024011	 0.778412
C	 -2.438579	 1.106236	 -0.272369
C	 0.845713	 -0.001731	 -0.208243
H	 -0.323783	 0.953829	 1.340327
H	 -0.235459	 -0.796807	 1.480410
C	 2.123994	 0.592255	 0.385230
H	 0.581544	 0.546085	 -1.111125
H	 1.023017	 -1.029993	 -0.508877
C	 2.436238	 0.049588	 1.779226
H	 2.960586	 0.386696	 -0.279062
H	 2.027691	 1.674461	 0.431297
H	 2.571902	 -1.028037	 1.759918
H	 1.631024	 0.268904	 2.474188
H	 3.345360	 0.490108	 2.176046
H	 -3.277823	 0.863061	 -0.908988
H	 -1.806773	 1.843019	 -0.759671
H	 -2.802853	 1.554979	 0.648059

11 8 5 9 F

5 3 2 4 F

