%nprocshared=1
%mem=2GB
#HF/6-31G* nosymm scf=tight 

Mol

0 1
O	 -1.276010	 1.052711	 -0.768302
C	 -1.204840	 0.067374	 -0.106123
C	 -2.388195	 -0.672128	 0.458071
O	 -0.067104	 -0.527208	 0.221609
H	 -2.388023	 -1.694060	 0.097175
H	 -3.300579	 -0.174919	 0.164318
H	 -2.315377	 -0.706351	 1.539059
C	 0.791642	 -1.010781	 -0.820811
C	 0.994649	 0.157468	 -1.769268
C	 0.155897	 -2.218695	 -1.491196
H	 1.731580	 -1.295078	 -0.371144
H	 1.434133	 1.001024	 -1.249159
H	 1.657613	 -0.129293	 -2.578946
H	 0.048844	 0.473854	 -2.195891
H	 0.790280	 -2.575484	 -2.296352
H	 0.024018	 -3.026136	 -0.782236
H	 -0.810802	 -1.955557	 -1.908641

11 8 4 2 F

