%nprocshared=1
%mem=2GB
#HF/6-31G* nosymm scf=tight 

Mol

0 1
H	 -2.193360	 0.653685	 2.650226
O	 -1.720907	 0.302786	 3.390989
C	 -1.550834	 -1.082690	 3.231033
C	 -0.521714	 -1.442912	 2.165256
H	 -1.223930	 -1.452246	 4.194483
H	 -2.504201	 -1.560429	 3.008244
C	 -0.911117	 -1.005532	 0.751067
H	 0.429129	 -0.992372	 2.437794
H	 -0.378289	 -2.522016	 2.183442
C	 0.115918	 -1.429151	 -0.302766
H	 -1.027544	 0.074466	 0.730667
H	 -1.881722	 -1.430594	 0.494962
C	 0.579824	 -2.886769	 -0.200376
H	 -0.294943	 -1.251138	 -1.294911
H	 0.987390	 -0.783648	 -0.215796
C	 0.727785	 -3.417141	 1.228361
H	 -0.136855	 -3.511425	 -0.729518
H	 1.526011	 -3.000648	 -0.727253
C	 1.089510	 -4.903113	 1.278129
H	 -0.203924	 -3.256926	 1.769064
H	 1.489685	 -2.852392	 1.760217
C	 1.244105	 -5.433542	 2.703053
H	 0.324002	 -5.477389	 0.760738
H	 2.015148	 -5.066637	 0.730097
H	 0.323796	 -5.314109	 3.267847
H	 1.498359	 -6.488998	 2.704892
H	 2.028698	 -4.903778	 3.236090

14 10 7 4 F

10 7 4 8 F

8 4 3 2 F

10 13 16 20 F

20 16 19 22 F

4 3 2 1 F

