%nprocshared=1
%mem=2GB
#HF/6-31G* nosymm scf=tight 

Mol

0 1
H	 7.928808	 -3.366379	 2.157003
C	 7.606317	 -3.460800	 1.124721
C	 7.095678	 -2.126941	 0.581356
H	 8.452164	 -3.818968	 0.545412
H	 6.832932	 -4.223254	 1.088129
C	 6.625997	 -2.226409	 -0.871682
H	 7.883190	 -1.384167	 0.656941
H	 6.272391	 -1.777306	 1.202360
C	 5.701787	 -3.414315	 -1.139970
H	 6.114980	 -1.312155	 -1.152119
H	 7.494440	 -2.315722	 -1.520429
C	 4.313150	 -3.277651	 -0.533130
H	 5.560531	 -3.534958	 -2.212940
H	 6.152654	 -4.342811	 -0.796764
C	 3.475324	 -4.538016	 -0.405696
O	 3.884006	 -2.218962	 -0.184678
C	 3.142513	 -5.197708	 -1.752249
H	 2.564201	 -4.261788	 0.111283
H	 4.012079	 -5.248323	 0.220437
C	 3.906992	 -6.506058	 -1.962969
H	 2.073565	 -5.394231	 -1.800676
H	 3.371148	 -4.517137	 -2.568350
C	 3.584233	 -7.172245	 -3.299729
H	 3.675183	 -7.191428	 -1.151430
H	 4.975620	 -6.311267	 -1.903941
H	 2.526789	 -7.408725	 -3.374670
H	 3.837980	 -6.523738	 -4.133494
H	 4.139105	 -8.097216	 -3.419829

10 6 3 2 F

16 12 15 17 F

