%nprocshared=1
%mem=2GB
#HF/6-31G* nosymm scf=tight 

Mol

0 1
H	 -2.499100	 -0.730091	 -0.745082
O	 -2.347518	 -0.290803	 0.079804
C	 -1.184022	 0.487508	 -0.006784
C	 0.062599	 -0.378592	 0.031606
H	 -1.176523	 1.099369	 -0.904519
H	 -1.187323	 1.153111	 0.844927
O	 1.114232	 0.401823	 0.505739
H	 0.286381	 -0.757526	 -0.967549
H	 -0.110078	 -1.239073	 0.675297
C	 2.325703	 -0.274025	 0.627014
H	 2.665628	 -0.656846	 -0.333470
H	 3.056084	 0.429354	 1.002119
H	 2.247870	 -1.107024	 1.322604

1 2 3 5 F

10 7 4 8 F

4 7 10 13 F

