%nprocshared=1
%mem=2GB
#HF/6-31G* nosymm scf=tight 

Mol

0 1
H	 -1.070890	 -1.366565	 0.180696
O	 -1.422729	 -0.573567	 -0.196946
C	 -0.731407	 0.539437	 0.309156
C	 0.680193	 0.672443	 -0.251532
H	 -1.319765	 1.404033	 0.030086
H	 -0.700012	 0.506517	 1.397677
C	 1.650088	 1.384310	 0.692000
H	 1.056089	 -0.320307	 -0.481305
H	 0.623425	 1.216931	 -1.191666
H	 1.786477	 0.827750	 1.614407
H	 2.628504	 1.492678	 0.236010
H	 1.294245	 2.379519	 0.947337

1 2 3 4 F

