%nprocshared=1
%mem=2GB
#HF/6-31G* nosymm scf=tight 

Mol

0 1
O	 1.068020	 -0.817486	 -1.914512
C	 1.452327	 -0.974344	 -0.800616
C	 1.245376	 -0.013843	 0.345420
O	 2.132542	 -2.045633	 -0.411670
C	 0.455112	 1.231400	 -0.050772
H	 0.759099	 -0.568109	 1.141357
H	 2.228430	 0.251429	 0.726117
C	 -0.998893	 1.219485	 0.433193
H	 0.482531	 1.345121	 -1.130325
H	 0.957290	 2.103070	 0.354729
C	 -1.883438	 0.145884	 -0.207175
H	 -1.431207	 2.195402	 0.224832
H	 -1.019646	 1.105716	 1.516076
C	 -1.236535	 -1.240640	 -0.198954
H	 -2.833649	 0.102377	 0.322943
H	 -2.118527	 0.417480	 -1.233792
C	 -0.020065	 -1.347398	 -1.120331
H	 -1.975420	 -1.984108	 -0.493128
H	 -0.939381	 -1.493338	 0.817680
C	 0.966107	 -0.193248	 -0.943964
H	 0.490757	 -2.289749	 -0.934115
H	 -0.353923	 -1.381133	 -2.155309
H	 1.816977	 -0.297053	 -1.610185
H	 1.345510	 -0.153780	 0.073234
H	 0.494066	 0.761820	 -1.156791
C	 2.398266	 -3.029756	 -1.394410
H	 1.476118	 -3.425535	 -1.795042
H	 2.951569	 -3.807416	 -0.891311
H	 2.985748	 -2.613521	 -2.200108

21 17 14 11 F

17 14 11 15 F

15 11 8 5 F

11 8 5 9 F

2 4 26 27 F

1 2 4 26 F

6 3 2 1 F

