%nprocshared=1
%mem=2GB
#HF/6-31G* nosymm scf=tight 

Mol

0 1
O	 0.719163	 2.094303	 -0.195885
C	 -0.346524	 2.455308	 -0.579327
C	 -1.609904	 1.629699	 -0.567716
O	 -0.566918	 3.664063	 -1.080637
C	 -1.412532	 0.227344	 -0.000452
H	 -2.353848	 2.182630	 -0.000646
H	 -1.983158	 1.592938	 -1.587561
C	 -2.706999	 -0.587347	 -0.000541
H	 -1.024136	 0.301116	 1.010592
H	 -0.652509	 -0.289285	 -0.578347
C	 -3.956778	 0.291888	 0.000910
H	 -2.726114	 -1.239230	 -0.871609
H	 -2.725217	 -1.240844	 0.869333
H	 -3.985213	 0.933254	 -0.875158
H	 -4.860123	 -0.309979	 0.000519
H	 -3.984618	 0.931166	 0.878514
C	 0.540904	 4.543417	 -1.148520
H	 0.940248	 4.728436	 -0.161717
H	 0.164948	 5.459148	 -1.577524
H	 1.317944	 4.128149	 -1.774033

1 2 3 6 F

9 5 3 6 F

1 2 4 17 F

