%nprocshared=1
%mem=2GB
#HF/6-31G* nosymm scf=tight 

Mol

0 1
H	 1.992140	 0.213700	 0.462608
C	 1.153677	 0.235170	 -0.219905
O	 0.000000	 0.000000	 0.521119
H	 1.122299	 1.207639	 -0.708791
H	 1.300483	 -0.528304	 -0.982298
C	 -1.165642	 0.000000	 -0.238270
H	 -1.228672	 0.883184	 -0.872070
H	 -2.003012	 0.000000	 0.445920
H	 -1.228672	 -0.883184	 -0.872070
