%nprocshared=1
%mem=2GB
#HF/6-31G* nosymm scf=tight 
prop=(read,field)

Mol

0 1
H	 -3.650091	 0.221902	 -0.000000
C	 -2.576832	 0.154027	 -0.000000
C	 -1.960137	 -1.089389	 -0.000000
C	 -1.811541	 1.307475	 -0.000000
H	 -2.554281	 -1.985367	 -0.000000
C	 -0.581355	 -1.175937	 -0.000000
H	 -2.286926	 2.271619	 0.000000
C	 -0.428527	 1.219139	 0.000000
H	 -0.090634	 -2.129980	 -0.000000
C	 0.198533	 -0.021641	 0.000000
H	 0.150139	 2.123958	 0.000000
C	 1.691547	 -0.173274	 0.000000
C	 2.557971	 1.068842	 -0.000000
O	 2.191973	 -1.259068	 0.000000
H	 2.362401	 1.677741	 -0.876798
H	 3.594632	 0.764172	 -0.000000
H	 2.362401	 1.677741	 0.876798

@grid.dat /N
