%nprocshared=1
%mem=2GB
#HF/6-31G* nosymm scf=tight 

Mol

0 1
H	 -3.541658	 0.290289	 1.476483
O	 -3.578694	 -0.053459	 2.357129
C	 -3.493595	 -1.455455	 2.322201
C	 -2.097435	 -1.964634	 1.981316
H	 -3.773819	 -1.792061	 3.312072
H	 -4.222656	 -1.864179	 1.623492
C	 -0.977827	 -1.293355	 2.780523
H	 -2.071704	 -3.038353	 2.148145
H	 -1.928528	 -1.804672	 0.917714
C	 -0.791129	 0.181352	 2.412827
H	 -0.048083	 -1.829717	 2.612425
H	 -1.196603	 -1.370936	 3.845633
C	 -2.087810	 0.996018	 2.340165
H	 -0.114082	 0.645582	 3.127633
H	 -0.295110	 0.236862	 1.446089
C	 -3.034785	 0.600176	 1.203932
H	 -2.614892	 0.884423	 3.285441
H	 -1.843399	 2.053703	 2.254130
C	 -4.465221	 1.099239	 1.418936
H	 -3.044660	 -0.484477	 1.106250
H	 -2.666261	 0.987989	 0.257311
C	 -5.411106	 0.710962	 0.283063
H	 -4.847259	 0.703375	 2.357459
H	 -4.456195	 2.181939	 1.526468
H	 -5.467273	 -0.368187	 0.171231
H	 -6.416738	 1.077069	 0.465559
H	 -5.076338	 1.123259	 -0.664726

14 10 7 4 F

14 10 13 16 F

10 7 4 8 F

8 4 3 2 F

20 16 19 22 F

4 3 2 1 F

