%nprocshared=1
%mem=2GB
#HF/6-31G* nosymm scf=tight 

Mol

0 1
O	 -2.824364	 4.742126	 2.338608
C	 -2.162349	 4.631183	 1.352613
C	 -1.647472	 3.286901	 0.870175
C	 -1.790388	 5.835646	 0.512333
C	 -2.051834	 2.111981	 1.755776
H	 -2.002228	 3.140587	 -0.149201
H	 -0.563206	 3.354170	 0.791158
C	 -1.515705	 0.776077	 1.238389
H	 -3.134444	 2.073915	 1.823865
H	 -1.693635	 2.287566	 2.765237
C	 -2.259874	 0.272531	 0.000494
H	 -0.456776	 0.875511	 1.004232
H	 -1.583302	 0.027453	 2.026463
C	 -2.299309	 1.292585	 -1.138781
H	 -3.277800	 0.004009	 0.277518
H	 -1.789924	 -0.643312	 -0.353590
C	 -3.566352	 2.147124	 -1.131721
H	 -1.427462	 1.940154	 -1.072741
H	 -2.220829	 0.772174	 -2.091079
H	 -3.656394	 2.706940	 -0.205088
H	 -3.564796	 2.860504	 -1.950126
H	 -4.455333	 1.530813	 -1.231810
H	 -2.160973	 5.719213	 -0.501929
H	 -2.211568	 6.729971	 0.950084
H	 -0.710639	 5.935885	 0.451279

9 5 8 12 F

15 11 8 12 F

1 2 3 6 F

9 5 3 6 F

