%nprocshared=1
%mem=2GB
#HF/6-31G* nosymm scf=tight 

Mol

0 1
O	 1.316435	 -2.651264	 0.779972
C	 0.408965	 -1.976124	 0.416570
C	 -1.030240	 -2.410838	 0.368854
O	 0.550821	 -0.724572	 0.000672
H	 -1.630818	 -1.757376	 0.990929
H	 -1.112058	 -3.430260	 0.715231
H	 -1.402699	 -2.331927	 -0.645852
C	 1.863949	 -0.193559	 -0.000319
H	 2.028859	 0.409284	 -0.881648
H	 2.526261	 -1.045082	 -0.000003
H	 2.029520	 0.410555	 0.880008

8 4 2 1 F

