%nprocshared=1
%mem=2GB
#HF/6-31G* nosymm scf=tight 

Mol

0 1
H	 2.548937	 -5.580792	 -1.403861
C	 2.408077	 -4.554396	 -1.117957
C	 1.157576	 -4.100031	 -0.712959
C	 3.464258	 -3.667211	 -1.146872
H	 0.322713	 -4.777532	 -0.684245
C	 0.973147	 -2.784637	 -0.345640
H	 4.438612	 -4.000814	 -1.457402
C	 3.294797	 -2.336560	 -0.779301
H	 0.012810	 -2.420599	 -0.030896
C	 2.044290	 -1.894206	 -0.377261
H	 4.135529	 -1.671171	 -0.812375
O	 1.765256	 -0.628444	 0.000000
C	 2.778419	 0.335181	 0.000000
H	 2.731280	 0.961222	 -0.884976
H	 3.711703	 -0.207767	 0.000000
H	 2.731280	 0.961222	 0.884976

13 12 10 8 F

