%nprocshared=1
%mem=2GB
#HF/6-31G* nosymm scf=tight 

Mol

0 1
O	 -0.682937	 1.318834	 -0.186099
C	 -0.860635	 0.152188	 -0.042321
C	 -2.173363	 -0.477127	 0.338347
O	 0.083258	 -0.765189	 -0.202595
H	 -2.477673	 -1.180929	 -0.427595
H	 -2.923125	 0.290956	 0.455536
H	 -2.058825	 -1.029004	 1.264191
C	 1.391937	 -0.334737	 -0.569838
C	 2.323056	 -1.512130	 -0.792124
H	 1.773636	 0.329182	 0.190858
H	 1.247255	 0.222590	 -1.484143
H	 3.286992	 -1.156756	 -1.143220
H	 2.477741	 -2.060885	 0.128369
H	 1.915486	 -2.185107	 -1.538718

8 4 2 1 F

