%nprocshared=1
%mem=2GB
#HF/6-31G* nosymm scf=tight 

Mol

0 1
H	 -3.940005	 -1.240276	 0.954456
C	 -2.872851	 -1.109999	 0.985966
C	 -2.248060	 -0.811609	 2.187526
C	 -2.126776	 -1.240957	 -0.174705
H	 -2.827847	 -0.710320	 3.086945
C	 -0.875874	 -0.644243	 2.227249
H	 -2.612841	 -1.472290	 -1.105206
C	 -0.753076	 -1.073853	 -0.137330
H	 -0.375525	 -0.413066	 3.148053
C	 -0.123896	 -0.774744	 1.065346
H	 -0.171811	 -1.174280	 -1.033079
C	 1.350980	 -0.584761	 1.161810
O	 1.970282	 -0.730723	 0.000018
O	 1.924163	 -0.327944	 2.173920
C	 3.377318	 -0.566646	 -0.000065
H	 3.695437	 -0.028981	 -0.881264
H	 3.789299	 -1.563704	 0.000236
H	 3.695516	 -0.028316	 0.880770

10 12 13 15 F

13 12 10 6 F

