%nprocshared=1
%mem=2GB
#HF/6-31G* nosymm scf=tight 

Mol

0 1
H	 -3.135461	 -1.215070	 0.001379
O	 -2.310168	 -0.871793	 -0.309793
C	 -2.026376	 0.340750	 0.341611
C	 -0.673256	 0.843270	 -0.132153
H	 -2.792215	 1.080697	 0.115987
H	 -2.013526	 0.200402	 1.421792
C	 0.486613	 -0.083066	 0.235839
H	 -0.715586	 0.970948	 -1.210718
H	 -0.508072	 1.829858	 0.297090
C	 0.337625	 -0.700680	 1.627302
H	 1.416875	 0.472942	 0.181241
H	 0.557783	 -0.879541	 -0.504028
C	 0.606783	 0.296858	 2.753421
H	 -0.667198	 -1.103491	 1.735892
H	 1.016739	 -1.545551	 1.724467
H	 -0.079983	 1.136975	 2.703957
H	 0.491638	 -0.167996	 3.727893
H	 1.616712	 0.693010	 2.693268

14 10 7 11 F

2 3 4 8 F

1 2 3 4 F

