%nprocshared=1
%mem=2GB
#HF/6-31G* nosymm scf=tight 

Mol

0 1
O	 -1.480647	 -1.571840	 -1.726104
C	 -0.631609	 -1.381414	 -0.915785
C	 0.645287	 -2.177144	 -0.786880
O	 -0.698257	 -0.426125	 0.001050
C	 0.763905	 -3.288373	 -1.822287
H	 0.680874	 -2.573053	 0.223682
H	 1.472894	 -1.477953	 -0.860782
H	 -0.054602	 -3.992374	 -1.734011
H	 1.695206	 -3.827930	 -1.686745
H	 0.744904	 -2.887354	 -2.828342
C	 -1.853104	 0.406779	 0.000512
C	 -3.066105	 -0.499277	 -0.000959
H	 -1.828410	 1.043074	 -0.873618
H	 -1.829857	 1.042383	 0.875188
H	 -3.071820	 -1.133106	 -0.880383
H	 -3.972708	 0.097145	 -0.001528
H	 -3.073405	 -1.133813	 0.877999

4 2 3 6 F

11 4 2 3 F

