%nprocshared=1
%mem=2GB
#HF/6-31G* nosymm scf=tight 

Mol

0 1
O	 1.193023	 1.330472	 -0.955394
C	 0.140502	 1.681556	 -1.381988
C	 -1.132561	 0.871331	 -1.354793
O	 -0.054281	 2.863688	 -1.952602
C	 -1.412532	 0.227344	 -0.000452
H	 -1.943418	 1.530676	 -1.652331
H	 -1.057793	 0.122680	 -2.138812
C	 -2.775916	 0.629811	 0.563969
H	 -0.628719	 0.505165	 0.697372
H	 -1.359315	 -0.852431	 -0.099228
C	 -2.797645	 2.066398	 1.084304
H	 -3.536472	 0.513809	 -0.205560
H	 -3.050906	 -0.049056	 1.368699
H	 -2.560134	 2.772611	 0.294048
H	 -3.775073	 2.326384	 1.478409
H	 -2.071552	 2.205558	 1.879957
C	 1.065166	 3.726192	 -2.042424
H	 1.444631	 3.960080	 -1.058153
H	 0.709774	 4.621320	 -2.528624
H	 1.850932	 3.269393	 -2.626729

9 5 8 12 F

1 2 3 6 F

1 2 4 17 F

