%nprocshared=1
%mem=2GB
#HF/6-31G* nosymm scf=tight 

Mol

0 1
H	 -0.877693	 -1.629083	 -0.003056
N	 -0.626943	 -0.667432	 -0.000092
C	 -1.299724	 0.217258	 -0.923893
C	 0.325755	 -0.252874	 0.869779
H	 -1.890489	 -0.344745	 -1.639543
H	 -0.551157	 0.782299	 -1.455028
H	 -1.952795	 0.905440	 -0.397648
C	 1.674978	 -0.919497	 0.690344
O	 0.127974	 0.574320	 1.716447
H	 2.068026	 -0.726742	 -0.302990
H	 2.359261	 -0.526889	 1.427442
H	 1.590945	 -1.994555	 0.814939

4 2 3 5 F

