%nprocshared=24
%mem=2GB
#HF/6-31G* nosymm scf=tight 

Mol

0 1
H	 -2.455504	 -1.062989	 3.255514
C	 -2.425350	 -0.963885	 2.187839
C	 -1.271134	 -0.975404	 1.562018
H	 -3.351856	 -0.856911	 1.655811
O	 -1.181299	 -0.828291	 0.214001
H	 -0.332264	 -1.081530	 2.076269
C	 0.051649	 -1.027425	 -0.387692
C	 1.039776	 0.052683	 -0.009189
H	 -0.017551	 -1.057701	 -1.469353
H	 0.441531	 -1.971055	 -0.035498
F	 0.985864	 0.260901	 1.298307
F	 2.281291	 -0.290594	 -0.310242
F	 0.780868	 1.194047	 -0.613046

11 8 7 9 F

3 5 7 9 F

6 3 5 7 F

