%nprocshared=1
%mem=2GB
#HF/6-31G* nosymm scf=tight 

Mol

0 1
O	 -0.488453	 0.057968	 1.132425
C	 -0.451170	 -1.129930	 1.097049
C	 0.801727	 -1.959116	 0.945507
O	 -1.528589	 -1.897310	 1.185968
C	 1.124911	 -2.785238	 2.184071
H	 1.613075	 -1.280220	 0.700432
H	 0.669725	 -2.590969	 0.072237
H	 1.272053	 -2.149836	 3.048928
H	 2.030738	 -3.360307	 2.024106
H	 0.320287	 -3.472711	 2.414906
C	 -2.314050	 -1.793928	 2.369084
C	 -1.498087	 -2.369354	 3.507240
H	 -3.239065	 -2.335793	 2.226562
H	 -2.560309	 -0.754686	 2.539155
H	 -1.255037	 -3.408935	 3.319206
H	 -2.061823	 -2.310364	 4.432642
H	 -0.572555	 -1.819199	 3.633638

2 4 11 13 F

4 2 3 6 F

