%nprocshared=1
%mem=2GB
#HF/6-31G* nosymm scf=tight 
prop=(read,field)

Mol

0 1
O	 -2.042700	 -1.228491	 -0.269057
C	 -1.654063	 -0.146263	 0.050110
C	 -0.332454	 0.023919	 0.778385
C	 -2.438730	 1.106144	 -0.272396
C	 0.845562	 -0.001823	 -0.208270
H	 -0.323934	 0.953737	 1.340300
H	 -0.235610	 -0.796899	 1.480383
C	 2.200158	 0.136026	 0.488220
H	 0.733559	 0.799927	 -0.936099
H	 0.811034	 -0.933888	 -0.764331
C	 3.373901	 0.101745	 -0.489716
H	 2.224554	 1.066917	 1.050601
H	 2.311518	 -0.664692	 1.215556
H	 3.308809	 0.912276	 -1.210032
H	 3.394662	 -0.832006	 -1.043901
H	 4.320790	 0.198380	 0.031906
H	 -3.277974	 0.862969	 -0.909015
H	 -1.806924	 1.842927	 -0.759698
H	 -2.803004	 1.554887	 0.648032

@grid.dat /N
