%nprocshared=1
%mem=2GB
#HF/6-31G* nosymm scf=tight 

Mol

0 1
O	 1.846825	 1.296220	 0.000415
C	 1.705091	 0.115954	 0.001797
C	 0.381791	 -0.609817	 0.001258
O	 2.721346	 -0.737485	 -0.000216
C	 -0.823008	 0.326187	 0.001381
H	 0.371250	 -1.265087	 -0.865474
H	 0.370908	 -1.265746	 0.867490
C	 -2.149452	 -0.435131	 -0.000098
H	 -0.770201	 0.977095	 -0.865636
H	 -0.771220	 0.975655	 0.869608
C	 -3.368779	 0.488503	 -0.000883
H	 -2.193746	 -1.087250	 -0.871175
H	 -2.195311	 -1.087803	 0.870418
C	 -3.367872	 1.478677	 1.163078
H	 -4.274657	 -0.112433	 0.036575
H	 -3.404529	 1.035311	 -0.940490
H	 -3.367262	 0.961315	 2.118353
H	 -4.243929	 2.119127	 1.134833
H	 -2.489907	 2.117919	 1.133766
C	 4.024888	 -0.184556	 -0.001949
H	 4.179030	 0.422472	 -0.882452
H	 4.701782	 -1.024608	 -0.003642
H	 4.181981	 0.421185	 0.878906

9 5 8 12 F

1 2 3 6 F

9 5 3 6 F

1 2 4 20 F

