%nprocshared=1
%mem=2GB
#HF/6-31G* nosymm scf=tight 

Mol

0 1
H	 3.083879	 -1.346558	 0.395444
O	 2.172668	 -1.603300	 0.415122
C	 1.365383	 -0.540424	 0.207814
C	 0.026668	 -0.539288	 0.578145
C	 1.916789	 0.575464	 -0.397310
H	 -0.400485	 -1.408729	 1.048940
C	 -0.759051	 0.576596	 0.343373
H	 2.950698	 0.575903	 -0.683855
C	 1.123255	 1.688476	 -0.628752
H	 -1.793738	 0.565694	 0.634376
C	 -0.216283	 1.696171	 -0.260853
C	 1.709290	 2.890686	 -1.278463
H	 -0.824757	 2.564020	 -0.444160
O	 2.871029	 3.051635	 -1.475960
H	 0.983361	 3.652530	 -1.578243

11 9 12 14 F

