%nprocshared=1
%mem=2GB
#HF/6-31G* nosymm scf=tight 

Mol

0 1
H	 -2.273092	 1.173159	 0.000295
O	 -1.438904	 1.618192	 0.000114
C	 -0.409536	 0.736003	 0.000030
C	 -0.340721	 -0.138991	 -1.072746
C	 0.539652	 0.697804	 1.019110
H	 -1.093123	 -0.075474	 -1.836846
C	 0.681169	 -1.066660	 -1.141160
C	 1.555990	 -0.245102	 0.924382
C	 0.462738	 1.653248	 2.188818
H	 0.728929	 -1.742706	 -1.976130
C	 1.637648	 -1.124919	 -0.140296
H	 2.297129	 -0.287457	 1.703654
H	 -0.462076	 1.535667	 2.749921
H	 1.278473	 1.479400	 2.878984
H	 0.528092	 2.691772	 1.870707
H	 2.435228	 -1.843867	 -0.186986
