%nprocshared=1
%mem=2GB
#HF/6-31G* nosymm scf=tight 

Mol

0 1
H	 -3.161837	 0.500524	 -0.000234
C	 -2.367097	 -0.232926	 -0.000000
O	 -1.158440	 0.455814	 -0.000122
H	 -2.468853	 -0.861886	 -0.882833
H	 -2.468942	 -0.861421	 0.883154
C	 -0.181941	 -0.098271	 -0.829166
C	 1.077355	 0.745518	 -0.735060
H	 -0.539089	 -0.131903	 -1.859318
H	 0.027293	 -1.125623	 -0.528038
C	 2.206300	 0.210687	 -1.615014
H	 0.831215	 1.764097	 -1.018914
H	 1.393714	 0.777321	 0.303017
H	 1.918322	 0.193574	 -2.662487
H	 3.091992	 0.831048	 -1.528130
H	 2.484407	 -0.800621	 -1.331615

11 7 6 8 F

8 6 3 2 F

