%nprocshared=1
%mem=2GB
#HF/6-31G* nosymm scf=tight 

Mol

0 1
H	 1.216287	 -2.302053	 -0.180215
C	 0.246775	 -1.832237	 -0.217304
O	 0.464886	 -0.454746	 -0.000158
H	 -0.384884	 -2.253176	 0.555899
H	 -0.199115	 -2.007552	 -1.189162
C	 -0.590998	 0.343045	 0.000118
O	 -1.699443	 -0.054298	 0.000227
H	 -0.340329	 1.404368	 0.000207
