%nprocshared=1
%mem=2GB
#HF/6-31G* nosymm scf=tight 

Mol

0 1
H	 -1.602277	 -3.687642	 -0.543992
O	 -2.060883	 -3.173706	 -1.193560
C	 -2.314188	 -1.890509	 -0.687369
C	 -1.074007	 -1.297808	 -0.042137
H	 -2.680585	 -1.219751	 -1.459506
H	 -3.092894	 -1.993894	 0.055179
O	 -0.043959	 -1.331029	 -0.978982
H	 -0.803151	 -1.871881	 0.846152
H	 -1.280906	 -0.278701	 0.279110
C	 -0.381609	 -0.813417	 -2.226865
H	 0.366496	 -0.106062	 -2.579876
H	 -0.435693	 -1.641239	 -2.920182
H	 -1.346371	 -0.311084	 -2.200645

8 4 3 5 F

1 2 3 5 F

10 7 4 8 F

