%nprocshared=1
%mem=2GB
#HF/6-31G* nosymm scf=tight 

Mol

0 1
H	 1.353092	 -3.772952	 4.108713
C	 1.340385	 -3.355343	 3.107119
C	 0.113006	 -2.470006	 2.895735
H	 2.259067	 -2.791009	 2.973787
H	 1.356606	 -4.183539	 2.404214
C	 0.056087	 -1.862958	 1.497646
H	 0.102204	 -1.664321	 3.623158
H	 -0.787853	 -3.056305	 3.069222
N	 -1.103938	 -1.007187	 1.344499
H	 0.942827	 -1.256472	 1.333844
H	 0.085820	 -2.662406	 0.749731
C	 -1.217365	 -0.386708	 0.039277
H	 -1.934551	 -1.535072	 1.535448
C	 -2.452633	 0.504241	 -0.042481
H	 -0.328508	 0.217335	 -0.122044
H	 -1.242288	 -1.122707	 -0.771320
C	 -3.758029	 -0.289423	 -0.010781
H	 -2.394220	 1.093569	 -0.952170
H	 -2.440793	 1.210787	 0.785871
H	 -3.816659	 -0.981993	 -0.845726
H	 -4.617837	 0.370165	 -0.069296
H	 -3.847478	 -0.867502	 0.904682

10 6 9 12 F

