%nprocshared=1
%mem=2GB
#HF/6-31G* nosymm scf=tight 

Mol

0 1
H	 -3.426402	 -0.856423	 -0.515587
O	 -3.118162	 -0.155691	 0.042606
C	 -1.777354	 -0.061246	 0.005466
C	 -0.995437	 -0.911005	 -0.771397
C	 -1.185343	 0.928369	 0.780225
H	 -1.462240	 -1.675385	 -1.368998
C	 0.376151	 -0.767599	 -0.770335
H	 -1.809779	 1.571372	 1.370902
C	 0.187684	 1.059302	 0.770752
H	 0.991636	 -1.416233	 -1.364938
C	 0.984182	 0.218375	 0.000000
H	 0.646957	 1.826032	 1.370965
C	 2.452467	 0.370529	 0.000000
O	 3.228994	 -0.533774	 0.000000
H	 2.809473	 1.405765	 0.000000

5 3 2 1 F

