%nprocshared=8
%mem=2GB
#B3LYP/6-31G* nosymm scf=tight
# opt=ModRedundant  EmpiricalDispersion=GD3

Mol

1 1
C	 -0.000000	 -0.000000	 -0.191639
C	 1.207492	 -0.173730	 0.510391
C	 1.201830	 -0.168145	 1.901670
C	 -0.000000	 0.000000	 2.596333
C	 -1.201831	 0.168145	 1.901670
C	 -1.207491	 0.173731	 0.510391
C	 -0.000000	 -0.000000	 -1.658508
H	 2.148896	 -0.261774	 -0.024627
H	 2.134432	 -0.284522	 2.444112
H	 -0.000000	 0.000000	 3.681982
H	 -2.134433	 0.284521	 2.444112
H	 -2.148896	 0.261774	 -0.024627
N	 -0.712589	 -0.905950	 -2.322235
N	 0.712590	 0.905950	 -2.322235
H	 0.673432	 1.006470	 -3.329771
H	 1.377190	 1.485970	 -1.827091
H	 -1.377189	 -1.485970	 -1.827091
H	 -0.673431	 -1.006470	 -3.329771

2 1 7 13 F
