%nprocshared=1
%mem=2GB
#HF/6-31G* nosymm scf=tight 

Mol

0 1
H	 -3.042581	 -0.665861	 0.004336
O	 -2.245037	 -1.176175	 0.000806
C	 -1.162163	 -0.365336	 0.001020
C	 0.090050	 -0.798040	 0.398587
C	 -1.351820	 0.946183	 -0.417044
H	 0.238012	 -1.813542	 0.725442
C	 1.151477	 0.095631	 0.373349
H	 -2.338464	 1.249114	 -0.716850
C	 -0.292452	 1.836226	 -0.443094
H	 2.126124	 -0.236836	 0.684103
C	 0.969901	 1.399659	 -0.040796
C	 -0.492367	 3.255900	 -0.920231
H	 1.802162	 2.081228	 -0.052386
H	 0.025689	 3.960723	 -0.278646
H	 -1.542031	 3.523891	 -0.935996
H	 -0.102574	 3.382392	 -1.926416
