%nprocshared=1
%mem=2GB
#HF/6-31G* nosymm scf=tight 

Mol

0 1
O	 -0.385421	 -0.969830	 -1.769116
C	 -0.386414	 -0.049182	 -0.996388
C	 -1.522544	 0.956333	 -1.011696
N	 0.623947	 0.147590	 -0.102813
H	 -1.162753	 1.959582	 -1.212009
H	 -2.203734	 0.661406	 -1.795306
H	 -2.054189	 0.971940	 -0.066343
C	 1.665360	 -0.855771	 0.000151
C	 0.567017	 1.095255	 0.988487
H	 2.465253	 -0.618490	 -0.692587
H	 1.257730	 -1.821716	 -0.242189
H	 2.081488	 -0.891645	 1.004627
H	 1.565760	 1.463937	 1.190042
H	 -0.051107	 1.944676	 0.744887
H	 0.186607	 0.641036	 1.901606

8 4 2 3 F

