%nprocshared=1
%mem=2GB
#HF/6-31G* nosymm scf=tight 

Mol

0 1
H	 -2.499100	 -0.730091	 -0.745082
O	 -2.347518	 -0.290803	 0.079804
C	 -1.184022	 0.487508	 -0.006784
C	 0.062599	 -0.378592	 0.031606
H	 -1.176523	 1.099369	 -0.904519
H	 -1.187323	 1.153111	 0.844927
O	 0.972868	 0.215920	 0.902093
H	 0.489628	 -0.465068	 -0.969468
H	 -0.199710	 -1.381984	 0.361730
C	 2.161946	 -0.490327	 1.064728
H	 2.695482	 -0.593699	 0.121710
H	 2.779315	 0.064470	 1.757519
H	 1.981543	 -1.483831	 1.469938

1 2 3 5 F

10 7 4 8 F

4 7 10 13 F

