%nprocshared=1
%mem=2GB
#HF/6-31G* nosymm scf=tight 

Mol

0 1
H	 -2.646374	 -0.642757	 1.268656
C	 -2.083525	 -0.384536	 0.393091
O	 -0.807605	 -0.127164	 0.768327
F	 -2.118945	 -1.383102	 -0.486752
F	 -2.621877	 0.670592	 -0.209486
C	 0.209381	 -0.568720	 -0.058386
C	 -0.113436	 -0.075448	 -1.462890
Cl	 0.324476	 -2.335949	 -0.028941
H	 1.169116	 -0.174311	 0.226435
F	 -1.171164	 -0.698753	 -1.937066
F	 0.907674	 -0.343832	 -2.252030
F	 -0.334721	 1.216053	 -1.495001

10 7 6 9 F

9 6 3 2 F

