%nprocshared=1
%mem=2GB
#HF/6-31G* nosymm scf=tight 

Mol

0 1
O	 -1.487788	 1.240889	 -0.102860
C	 -1.083277	 0.139568	 0.115197
C	 0.323299	 -0.082943	 0.642902
C	 -1.933017	 -1.084621	 -0.143902
C	 1.355627	 -0.005344	 -0.493127
H	 0.396251	 -1.044647	 1.143147
H	 0.528637	 0.693580	 1.371677
C	 0.882117	 -0.718067	 -1.758458
H	 1.569636	 1.035834	 -0.724257
H	 2.284776	 -0.445201	 -0.146214
H	 1.629716	 -0.654313	 -2.542499
H	 -0.035558	 -0.278449	 -2.138501
H	 0.691657	 -1.769618	 -1.566070
H	 -1.393885	 -1.806447	 -0.750509
H	 -2.850323	 -0.799888	 -0.640100
H	 -2.169004	 -1.571158	 0.798858

4 2 3 5 F

