%nprocshared=1
%mem=2GB
#HF/6-31G* nosymm scf=tight 

Mol

0 1
H	 2.866480	 -0.465706	 0.876907
C	 2.405773	 -0.024801	 0.000000
N	 0.988830	 -0.304158	 0.000000
H	 2.866480	 -0.465706	 -0.876907
H	 2.629928	 1.045948	 0.000000
C	 0.279147	 0.434866	 -1.027698
C	 0.381680	 -0.085199	 1.299767
H	 0.366520	 1.515979	 -0.879175
H	 0.709903	 0.198994	 -1.995716
C	 -1.190225	 0.046501	 -1.017284
H	 0.887516	 -0.701886	 2.036024
H	 0.476524	 0.958017	 1.617892
C	 -1.090411	 -0.459772	 1.248460
H	 -1.751489	 0.652089	 -1.716758
H	 -1.293324	 -0.998984	 -1.302417
O	 -1.754814	 0.257354	 0.246335
H	 -1.579679	 -0.219356	 2.183250
H	 -1.188814	 -1.529077	 1.069926
