%nprocshared=1
%mem=2GB
#HF/6-31G* nosymm scf=tight 

Mol

0 1
H	 -2.240291	 0.559484	 0.604969
C	 -2.008299	 -0.205926	 -0.129530
O	 -0.774054	 0.001095	 -0.743181
H	 -2.752932	 -0.160639	 -0.912984
H	 -2.076115	 -1.178578	 0.348530
C	 0.410107	 -0.035494	 0.033322
C	 1.525938	 -0.026612	 -1.009200
C	 0.522069	 1.202474	 0.928917
C	 0.484712	 -1.318251	 0.867639
H	 1.459897	 0.867364	 -1.619017
H	 1.433489	 -0.887043	 -1.662259
H	 2.502563	 -0.052988	 -0.536793
H	 0.396340	 2.104712	 0.339692
H	 1.497994	 1.237150	 1.402171
H	 -0.221184	 1.204606	 1.718934
H	 0.333175	 -2.186784	 0.235390
H	 1.458733	 -1.404507	 1.338144
H	 -0.259059	 -1.336856	 1.657000

2 3 6 7 F

