%nprocshared=1
%mem=2GB
#HF/6-31G* nosymm scf=tight 

Mol

0 1
O	 0.968737	 -0.101610	 -0.705824
C	 0.028650	 0.075053	 -0.000277
C	 -1.233602	 -0.752807	 0.000328
O	 -0.033267	 1.047919	 0.899501
C	 -2.501530	 0.091881	 0.000126
H	 -1.193807	 -1.406641	 -0.865785
H	 -1.193516	 -1.405779	 0.867015
H	 -2.545121	 0.729328	 -0.874513
H	 -3.377167	 -0.548497	 0.000561
H	 -2.544818	 0.730135	 0.874258
C	 -1.272434	 1.720000	 1.035000
H	 -1.551895	 2.192510	 0.104383
H	 -1.122311	 2.463799	 1.801870
H	 -2.049058	 1.029143	 1.330033

4 2 3 6 F

