%nprocshared=1
%mem=2GB
#HF/6-31G* nosymm scf=tight 

Mol

0 1
H	 2.652209	 0.763231	 0.000000
O	 2.263154	 -0.100023	 0.000000
C	 0.912879	 -0.015685	 0.000000
C	 0.351425	 1.254493	 -0.000000
C	 0.098218	 -1.136136	 0.000000
H	 1.000927	 2.110037	 -0.000000
C	 -1.023028	 1.391926	 -0.000000
H	 0.534501	 -2.121112	 0.000000
C	 -1.280622	 -0.983437	 -0.000000
H	 -1.452968	 2.377744	 0.000000
C	 -1.850331	 0.276360	 -0.000000
H	 -1.905965	 -1.858444	 -0.000000
H	 -2.918780	 0.391172	 -0.000000
