%nprocshared=1
%mem=2GB
#HF/6-31G* nosymm scf=tight 

Mol

0 1
H	 5.872182	 -1.530550	 3.197622
C	 5.817115	 -2.586617	 2.952239
C	 6.916664	 -2.983026	 1.967846
H	 5.903764	 -3.146408	 3.878774
H	 4.830518	 -2.779402	 2.539612
C	 6.863537	 -4.466226	 1.594873
H	 7.884922	 -2.753300	 2.400631
H	 6.824668	 -2.381538	 1.064829
C	 5.466269	 -4.955373	 1.213238
H	 7.541359	 -4.658503	 0.770719
H	 7.214128	 -5.057319	 2.437925
C	 4.964761	 -4.436609	 -0.126394
H	 5.463233	 -6.042187	 1.145441
H	 4.742883	 -4.707238	 1.986749
C	 3.475324	 -4.538016	 -0.405696
O	 5.711138	 -3.982151	 -0.940516
C	 3.142513	 -5.197708	 -1.752249
H	 3.077758	 -3.530724	 -0.373804
H	 3.010537	 -5.105855	 0.398180
C	 3.906992	 -6.506058	 -1.962969
H	 2.073565	 -5.394231	 -1.800676
H	 3.371148	 -4.517137	 -2.568350
C	 3.584233	 -7.172245	 -3.299729
H	 3.675183	 -7.191428	 -1.151430
H	 4.975620	 -6.311267	 -1.903941
H	 2.526789	 -7.408725	 -3.374670
H	 3.837980	 -6.523738	 -4.133494
H	 4.139105	 -8.097216	 -3.419829

10 6 3 2 F

12 15 17 21 F

