%nprocshared=1
%mem=2GB
#HF/6-31G* nosymm scf=tight 

Mol

0 1
H	 2.451652	 -2.178703	 0.543297
O	 2.773837	 -1.297590	 0.410870
C	 1.759943	 -0.431505	 0.213148
C	 1.615498	 0.101908	 -1.063781
C	 0.884140	 -0.069444	 1.218143
H	 2.308956	 -0.195195	 -1.827787
C	 0.597029	 0.993778	 -1.329024
H	 0.972003	 -0.464824	 2.210856
C	 -0.127203	 0.828546	 0.917115
H	 0.492843	 1.400719	 -2.317660
C	 -0.296030	 1.373392	 -0.335956
N	 -1.050953	 1.208207	 1.983900
H	 -1.091032	 2.064122	 -0.526398
O	 -1.001224	 0.591740	 3.005431
O	 -1.800580	 2.111323	 1.772463

11 9 12 14 F

