%nprocshared=1
%mem=2GB
#HF/6-31G* nosymm scf=tight 

Mol

0 1
H	 -5.249073	 3.820678	 -3.408150
C	 -5.301733	 3.174035	 -2.523446
C	 -5.586685	 3.889281	 -1.227361
O	 -5.138382	 2.001963	 -2.629813
C	 -4.660130	 3.437769	 -0.089869
H	 -5.512561	 4.956380	 -1.402044
H	 -6.618483	 3.665778	 -0.958856
C	 -4.902224	 1.994114	 0.357958
H	 -3.631508	 3.545037	 -0.421100
H	 -4.776247	 4.109855	 0.758997
C	 -6.253274	 1.803461	 1.050150
H	 -4.103097	 1.691704	 1.031598
H	 -4.841407	 1.326585	 -0.499507
C	 -7.144331	 3.045428	 0.963640
H	 -6.759475	 0.950440	 0.605350
H	 -6.089580	 1.551128	 2.097010
C	 -8.476090	 2.930578	 1.714174
H	 -7.340708	 3.275648	 -0.082366
H	 -6.595566	 3.895780	 1.362978
C	 -9.441535	 1.892099	 1.140506
H	 -8.962502	 3.902772	 1.700334
H	 -8.281521	 2.704290	 2.760528
H	 -9.641833	 2.084110	 0.089658
H	 -9.050397	 0.883621	 1.223924
H	 -10.390864	 1.916855	 1.666962

6 3 5 8 F

6 3 2 4 F

3 5 8 12 F

8 11 14 18 F

20 17 14 18 F

