%nprocshared=1
%mem=2GB
#HF/6-31G* nosymm scf=tight 

Mol

0 1
O	 0.864595	 1.350457	 -3.582828
C	 -0.228951	 1.586984	 -3.167320
C	 -0.762318	 0.880913	 -1.933103
C	 -1.121632	 2.617046	 -3.822658
C	 -1.047154	 -0.600408	 -2.229242
H	 -1.683036	 1.375529	 -1.643384
H	 -0.058803	 0.966401	 -1.109826
C	 0.149006	 -1.302371	 -2.876593
H	 -1.316462	 -1.085691	 -1.297922
H	 -1.910370	 -0.682986	 -2.887866
C	 0.075323	 -1.399736	 -4.404711
H	 0.247240	 -2.302033	 -2.457363
H	 1.057485	 -0.767858	 -2.606759
C	 -1.053427	 -2.288511	 -4.930067
H	 1.023541	 -1.787350	 -4.768483
H	 -0.024340	 -0.400645	 -4.824201
H	 -0.984148	 -3.291584	 -4.518035
H	 -1.004790	 -2.372263	 -6.011279
H	 -2.032469	 -1.894716	 -4.678683
H	 -1.990049	 2.126227	 -4.254183
H	 -0.579098	 3.135917	 -4.600613
H	 -1.488233	 3.330042	 -3.089825

6 3 2 1 F

6 3 5 8 F

12 8 11 15 F

