%nprocshared=1
%mem=2GB
#HF/6-31G* nosymm scf=tight 

Mol

0 1
H	 1.148083	 -1.049780	 0.784252
O	 1.319262	 -0.618148	 -0.041729
C	 0.709265	 0.639550	 -0.033818
C	 -0.331496	 0.827456	 -1.106240
H	 1.505577	 1.362703	 -0.168501
H	 0.262201	 0.846721	 0.937902
C	 -0.570565	 -0.014617	 -2.091391
H	 -0.904753	 1.738479	 -1.029449
H	 -0.006939	 -0.922291	 -2.209216
H	 -1.331968	 0.183443	 -2.824204

5 3 4 7 F

3 4 7 9 F

