%nprocshared=1
%mem=2GB
#HF/6-31G* nosymm scf=tight 

Mol

0 1
H	 -0.111376	 2.519230	 0.448362
C	 0.751261	 1.859460	 0.552509
N	 0.538815	 0.649616	 0.000000
O	 1.753095	 2.210436	 1.102376
C	 1.521968	 -0.411503	 0.000000
H	 -0.342941	 0.484965	 -0.428579
H	 2.150599	 -0.357004	 -0.881901
H	 0.999455	 -1.354525	 0.000000
H	 2.150599	 -0.357004	 0.881901

1 2 3 6 F

