%nprocshared=1
%mem=2GB
#HF/6-31G* nosymm scf=tight 

Mol

0 1
H	 1.550054	 -0.106184	 -1.858756
O	 0.729007	 -0.205652	 -1.398857
C	 0.702312	 0.627605	 -0.264544
C	 -0.714990	 0.596302	 0.266387
H	 0.967556	 1.647356	 -0.530264
H	 1.396756	 0.274779	 0.494921
O	 -1.405996	 -0.526611	 -0.195820
H	 -1.257453	 1.468809	 -0.075599
H	 -0.688972	 0.618407	 1.353696
H	 -0.890587	 -1.292708	 0.022039

10 7 4 3 F

