%nprocshared=1
%mem=2GB
#HF/6-31G* nosymm scf=tight 

Mol

0 1
H	 1.790480	 -1.597825	 2.145060
O	 1.378154	 -1.575472	 1.286996
C	 0.393576	 -0.678341	 1.324330
C	 -0.318135	 -0.576402	 0.000164
O	 0.141729	 -0.056310	 2.304455
C	 -1.454360	 0.441875	 -0.000474
H	 0.428580	 -0.334501	 -0.751437
H	 -0.679175	 -1.570146	 -0.251086
C	 -2.826123	 -0.230780	 0.000056
H	 -1.357605	 1.085198	 -0.868380
H	 -1.357504	 1.086451	 0.866496
H	 -2.959731	 -0.858053	 -0.876869
H	 -3.619374	 0.509403	 -0.000080
H	 -2.959371	 -0.857318	 0.877556

2 3 4 7 F

1 2 3 5 F

