%nprocshared=1
%mem=2GB
#HF/6-31G* nosymm scf=tight 

Mol

0 1
H	 -3.457960	 0.166880	 1.449720
O	 -3.367910	 -0.300316	 2.267454
C	 -3.043259	 -1.643282	 2.012310
C	 -1.609705	 -1.833855	 1.529264
H	 -3.184960	 -2.163733	 2.950780
H	 -3.740919	 -2.074362	 1.295219
C	 -1.366857	 -1.353989	 0.096218
H	 -0.944145	 -1.307168	 2.208232
H	 -1.365098	 -2.892230	 1.602586
C	 -2.086879	 -2.214768	 -0.945631
H	 -0.299294	 -1.357470	 -0.105430
H	 -1.701171	 -0.320998	 -0.001276
C	 -3.554433	 -2.520932	 -0.624868
H	 -2.024930	 -1.727629	 -1.917076
H	 -1.552406	 -3.157191	 -1.045018
C	 -3.773573	 -3.417846	 0.596608
H	 -4.072033	 -1.578208	 -0.460010
H	 -4.025313	 -2.975382	 -1.495260
C	 -5.252820	 -3.608158	 0.938724
H	 -3.259865	 -2.987246	 1.454977
H	 -3.323441	 -4.393531	 0.430106
C	 -5.474591	 -4.508256	 2.153758
H	 -5.707745	 -2.637038	 1.121633
H	 -5.769684	 -4.029307	 0.078857
H	 -4.996811	 -4.097182	 3.038612
H	 -6.532025	 -4.621937	 2.371808
H	 -5.062981	 -5.499940	 1.987919

14 10 7 4 F

14 10 13 16 F

10 7 4 8 F

10 13 16 20 F

20 16 19 22 F

4 3 2 1 F

