%nprocshared=1
%mem=2GB
#HF/6-31G* nosymm scf=tight 

Mol

0 1
H	 2.422287	 -1.629466	 0.881579
N	 1.437286	 -1.454080	 0.900903
C	 0.813697	 -1.925875	 -0.321906
C	 1.177245	 -0.042880	 1.119085
H	 1.017929	 -2.985242	 -0.435044
H	 1.192396	 -1.412697	 -1.208966
C	 -0.688550	 -1.702588	 -0.233443
H	 1.644749	 0.261377	 2.049481
H	 1.577962	 0.584345	 0.319300
C	 -0.325228	 0.179240	 1.206655
H	 -1.097020	 -2.334123	 0.561174
H	 -1.155608	 -2.001313	 -1.166270
N	 -0.975995	 -0.298722	 0.000000
H	 -0.529907	 1.239508	 1.313817
H	 -0.709356	 -0.326219	 2.097753
C	 -2.393863	 -0.024976	 0.000000
H	 -2.854032	 -0.467193	 -0.876721
H	 -2.854032	 -0.467193	 0.876721
H	 -2.623281	 1.044943	 0.000000
