%nprocshared=1
%mem=2GB
#HF/6-31G* nosymm scf=tight 

Mol

0 1
H	 0.883693	 0.733208	 2.164044
C	 -0.066137	 0.806875	 1.652477
O	 0.000000	 0.000000	 0.521119
H	 -0.856119	 0.482455	 2.328028
H	 -0.244766	 1.848357	 1.389618
C	 -1.165642	 0.000000	 -0.238270
H	 -1.228672	 0.883184	 -0.872070
H	 -2.003012	 0.000000	 0.445920
H	 -1.228672	 -0.883184	 -0.872070
