%nprocshared=1
%mem=2GB
#HF/6-31G* nosymm scf=tight opt=ModRedundant

Mol

0 1
H	 -2.341000	 -0.002000	 -0.104000
N	 -1.363000	 -0.001000	 -0.316000
C	 -0.735000	 1.205000	 0.199000
C	 -0.734000	 -1.206000	 0.199000
H	 -0.802000	 1.278000	 1.287000
H	 -1.234000	 2.068000	 -0.228000
C	 0.734000	 1.206000	 -0.199000
H	 -0.800000	 -1.280000	 1.287000
H	 -1.231000	 -2.070000	 -0.228000
C	 0.735000	 -1.205000	 -0.199000
H	 0.800000	 1.280000	 -1.287000
H	 1.231000	 2.070000	 0.228000
N	 1.363000	 0.001000	 0.316000
H	 1.234000	 -2.068000	 0.228000
H	 0.802000	 -1.278000	 -1.287000
H	 2.341000	 0.002000	 0.104000
