%nprocshared=1
%mem=2GB
#HF/6-31G* nosymm scf=tight 

Mol

0 1
H	 -3.193155	 -1.631401	 -0.897006
C	 -3.628768	 -0.786684	 -0.348994
C	 -4.874631	 -0.202200	 -0.964474
O	 -3.119002	 -0.396883	 0.650977
C	 -4.839692	 1.331389	 -1.020514
H	 -5.004380	 -0.634208	 -1.949990
H	 -5.714889	 -0.518950	 -0.347797
C	 -4.902224	 1.994114	 0.357958
H	 -3.928444	 1.636348	 -1.526392
H	 -5.662494	 1.689180	 -1.637554
C	 -6.253274	 1.803461	 1.050150
H	 -4.695412	 3.057012	 0.251542
H	 -4.114026	 1.596699	 0.994625
C	 -7.144331	 3.045428	 0.963640
H	 -6.759475	 0.950440	 0.605350
H	 -6.089580	 1.551128	 2.097010
C	 -8.476090	 2.930578	 1.714174
H	 -7.340708	 3.275648	 -0.082366
H	 -6.595566	 3.895780	 1.362978
C	 -9.441535	 1.892099	 1.140506
H	 -8.962502	 3.902772	 1.700334
H	 -8.281521	 2.704290	 2.760528
H	 -9.641833	 2.084110	 0.089658
H	 -9.050397	 0.883621	 1.223924
H	 -10.390864	 1.916855	 1.666962

6 3 5 8 F

6 3 2 4 F

3 5 8 12 F

8 11 14 18 F

20 17 14 18 F

