%nprocshared=1
%mem=2GB
#HF/6-31G* nosymm scf=tight 

Mol

0 1
H	 2.451652	 -2.178703	 0.543297
O	 2.773837	 -1.297590	 0.410870
C	 1.759943	 -0.431505	 0.213148
C	 0.537431	 -0.960419	 -0.188918
C	 1.899208	 0.930804	 0.394403
H	 0.454568	 -2.022507	 -0.322930
C	 -0.538558	 -0.125229	 -0.407481
H	 2.829298	 1.365352	 0.703640
C	 0.798251	 1.740488	 0.166099
H	 -1.478703	 -0.542041	 -0.717727
C	 -0.423942	 1.247348	 -0.232155
N	 0.950984	 3.180915	 0.359304
H	 -1.249510	 1.907958	 -0.397792
O	 1.955604	 3.567183	 0.876574
O	 0.063800	 3.886800	 -0.010689

11 9 12 14 F

