%nprocshared=1
%mem=2GB
#HF/6-31G* nosymm scf=tight 

Mol

0 1
H	 1.148083	 -1.049780	 0.784252
O	 1.319262	 -0.618148	 -0.041729
C	 0.709265	 0.639550	 -0.033818
C	 1.525192	 1.725319	 -0.684931
H	 0.539482	 0.886737	 1.007948
H	 -0.271166	 0.597121	 -0.507083
C	 2.772391	 1.600466	 -1.091955
H	 1.013614	 2.667512	 -0.807588
H	 3.318442	 0.682754	 -0.969222
H	 3.295719	 2.419911	 -1.550883

5 3 4 7 F

3 4 7 9 F

