%nprocshared=1
%mem=2GB
#HF/6-31G* nosymm scf=tight 

Mol

0 1
H	 -0.407661	 -0.681784	 -0.969301
N	 -0.626943	 -0.667432	 -0.000092
C	 -1.946565	 -1.092090	 0.408539
C	 0.325755	 -0.252874	 0.869779
H	 -2.598826	 -1.213176	 -0.449890
H	 -2.358159	 -0.335814	 1.056895
H	 -1.902880	 -2.032466	 0.947813
C	 1.674978	 -0.919497	 0.690344
O	 0.127974	 0.574320	 1.716447
H	 2.068026	 -0.726742	 -0.302990
H	 2.359261	 -0.526889	 1.427442
H	 1.590945	 -1.994555	 0.814939

4 2 3 5 F

