%nprocshared=1
%mem=2GB
#HF/6-31G* nosymm scf=tight 

Mol

0 1
O	 -2.042549	 -1.228399	 -0.269030
C	 -1.653912	 -0.146171	 0.050137
C	 -0.332303	 0.024011	 0.778412
C	 -2.438579	 1.106236	 -0.272369
C	 0.845713	 -0.001731	 -0.208243
H	 -0.323783	 0.953829	 1.340327
H	 -0.235459	 -0.796807	 1.480410
C	 2.198910	 -0.126430	 0.493426
H	 0.838137	 0.902702	 -0.814070
H	 0.707253	 -0.834702	 -0.890978
C	 2.217056	 -1.229435	 1.550903
H	 2.973003	 -0.320803	 -0.245778
H	 2.450034	 0.824319	 0.957733
H	 2.002593	 -2.199136	 1.110745
H	 1.474721	 -1.044983	 2.321849
H	 3.187106	 -1.292824	 2.033616
H	 -3.277823	 0.863061	 -0.908988
H	 -1.806773	 1.843019	 -0.759671
H	 -2.802853	 1.554979	 0.648059

11 8 5 9 F

5 3 2 4 F

