%nprocshared=1
%mem=2GB
#HF/6-31G* nosymm scf=tight 

Mol

0 1
H	 -0.588386	 2.204666	 0.047358
C	 -0.273889	 1.380778	 0.679531
N	 -0.528168	 0.128977	 -0.000000
H	 -0.856202	 1.424540	 1.592785
H	 0.777192	 1.539986	 0.934770
C	 0.248044	 -0.037491	 -1.209632
H	 -0.353326	 -0.635039	 0.621882
H	 0.998722	 0.743888	 -1.266824
H	 -0.398417	 0.061950	 -2.074060
H	 0.763621	 -0.999315	 -1.275517
