%nprocshared=1
%mem=2GB
#HF/6-31G* nosymm scf=tight 

Mol

0 1
O	 -3.853486	 4.767425	 2.367791
C	 -3.589812	 4.457530	 1.246542
C	 -2.652680	 3.307590	 0.923494
C	 -4.178810	 5.198743	 0.063816
C	 -2.933125	 2.035105	 1.717450
H	 -2.717326	 3.115698	 -0.146734
H	 -1.633034	 3.650735	 1.093720
C	 -4.014133	 2.234051	 2.781219
H	 -2.013384	 1.697166	 2.184359
H	 -3.229443	 1.246656	 1.032838
C	 -3.525372	 3.038661	 3.986808
H	 -4.871927	 2.737840	 2.338010
H	 -4.373817	 1.263520	 3.119988
C	 -2.916181	 4.389315	 3.606502
H	 -2.788496	 2.453766	 4.534467
H	 -4.355703	 3.199420	 4.672158
C	 -1.528098	 4.263140	 2.979613
H	 -3.579825	 4.901183	 2.912678
H	 -2.856064	 5.019346	 4.491547
H	 -1.560458	 3.666146	 2.072584
H	 -1.123072	 5.236529	 2.720443
H	 -0.831258	 3.786202	 3.663053
H	 -4.744894	 4.518640	 -0.565967
H	 -4.826996	 5.989572	 0.414927
H	 -3.388670	 5.622899	 -0.548887

9 5 8 12 F

15 11 8 12 F

15 11 14 18 F

1 2 3 6 F

