%nprocshared=1
%mem=2GB
#HF/6-31G* nosymm scf=tight 

Mol

0 1
O	 1.110098	 3.812380	 1.369968
C	 0.962747	 3.497132	 0.229063
C	 0.285389	 2.198669	 -0.171082
C	 1.446711	 4.380638	 -0.902464
C	 -0.179274	 1.350384	 1.009060
H	 -0.553014	 2.446664	 -0.820672
H	 0.979659	 1.639793	 -0.797221
C	 -0.856330	 0.051891	 0.567163
H	 -0.861654	 1.933437	 1.619417
H	 0.672730	 1.125431	 1.642805
C	 -2.259874	 0.272531	 0.000494
H	 -0.240512	 -0.442130	 -0.183009
H	 -0.914339	 -0.633487	 1.411532
C	 -2.299309	 1.292585	 -1.138781
H	 -2.922565	 0.600604	 0.799385
H	 -2.657872	 -0.676813	 -0.353541
C	 -3.566352	 2.147124	 -1.131721
H	 -1.427462	 1.940154	 -1.072741
H	 -2.220829	 0.772174	 -2.091079
H	 -3.656394	 2.706940	 -0.205088
H	 -3.564796	 2.860504	 -1.950126
H	 -4.455333	 1.530813	 -1.231810
H	 0.617641	 4.660908	 -1.545666
H	 1.907237	 5.271418	 -0.498407
H	 2.165983	 3.847965	 -1.517720

9 5 8 12 F

15 11 8 12 F

1 2 3 6 F

9 5 3 6 F

