%nprocshared=1
%mem=2GB
#HF/6-31G* nosymm scf=tight 

Mol

0 1
O	 -0.806752	 -1.114546	 1.082146
C	 -0.561929	 -0.074560	 0.531515
C	 -1.597472	 1.034011	 0.503089
N	 0.623947	 0.147590	 -0.102813
H	 -1.868528	 1.298769	 -0.513038
H	 -2.472791	 0.671041	 1.019920
H	 -1.237628	 1.928840	 0.999450
C	 0.829664	 1.420867	 -0.764873
C	 1.556583	 -0.896827	 -0.465621
H	 1.868621	 1.509329	 -1.062800
H	 0.582640	 2.220599	 -0.088597
H	 0.209573	 1.508379	 -1.654395
H	 2.564080	 -0.499509	 -0.432060
H	 1.510318	 -1.726710	 0.221466
H	 1.376806	 -1.270455	 -1.472048

2 4 8 10 F

