%nprocshared=1
%mem=2GB
#HF/6-31G* nosymm scf=tight 

Mol

0 1
H	 -2.698709	 -0.000305	 0.034435
C	 -1.693833	 0.000034	 0.434417
O	 -0.828952	 -0.000968	 -0.659236
H	 -1.574200	 0.882896	 1.055746
H	 -1.574147	 -0.881698	 1.057355
C	 0.559449	 -0.000018	 -0.420814
C	 1.301867	 1.012792	 -1.290268
C	 0.898914	 0.147765	 1.061037
H	 0.863713	 -0.991812	 -0.733542
H	 0.999024	 0.912137	 -2.326947
H	 2.371789	 0.840054	 -1.229737
H	 1.118587	 2.035783	 -0.977119
H	 0.316667	 -0.551067	 1.651865
H	 1.951309	 -0.063289	 1.223480
H	 0.707126	 1.150743	 1.428586

6 3 2 1 F

