%nprocshared=1
%mem=2GB
#HF/6-31G* nosymm scf=tight 

Mol

0 1
H	 3.297182	 -0.445357	 -0.016088
C	 2.237858	 -0.260312	 -0.012629
C	 1.694447	 0.621628	 0.913516
C	 1.423915	 -0.902278	 -0.930973
H	 2.332796	 1.116071	 1.623137
C	 0.334430	 0.861556	 0.920725
H	 1.847853	 -1.583803	 -1.645847
C	 0.059675	 -0.660729	 -0.922712
H	 -0.105174	 1.539409	 1.628124
C	 -0.488460	 0.219100	 0.000000
H	 -0.578223	 -1.156724	 -1.634065
C	 -1.949954	 0.470334	 0.000000
O	 -2.781584	 -0.381627	 0.000000
H	 -2.238022	 1.526388	 0.000000
