%nprocshared=1
%mem=2GB
#HF/6-31G* nosymm scf=tight 

Mol

0 1
H	 -3.135461	 -1.215070	 0.001379
O	 -2.310168	 -0.871793	 -0.309793
C	 -2.026376	 0.340750	 0.341611
C	 -0.673256	 0.843270	 -0.132153
H	 -2.792215	 1.080697	 0.115987
H	 -2.013526	 0.200402	 1.421792
C	 0.486613	 -0.083066	 0.235839
H	 -0.715586	 0.970948	 -1.210718
H	 -0.508072	 1.829858	 0.297090
C	 1.385394	 0.493553	 1.331064
H	 1.076884	 -0.283884	 -0.652286
H	 0.088581	 -1.041695	 0.566657
C	 2.279548	 1.627899	 0.831645
H	 0.766950	 0.856449	 2.149325
H	 2.006006	 -0.298272	 1.746151
H	 1.686664	 2.450415	 0.441971
H	 2.903661	 2.018567	 1.629646
H	 2.935564	 1.288295	 0.034887

14 10 7 11 F

2 3 4 8 F

1 2 3 4 F

