%nprocshared=1
%mem=2GB
#HF/6-31G* nosymm scf=tight 

Mol

0 1
H	 -2.798360	 -0.862255	 -0.071053
N	 -1.863561	 -0.715187	 0.256814
C	 -1.344686	 0.554728	 -0.219830
H	 -1.300452	 -1.461917	 -0.101532
C	 -1.775012	 0.783682	 -1.653544
H	 -1.664200	 1.410869	 0.375935
H	 -0.260021	 0.521024	 -0.185960
O	 -1.171727	 -0.192461	 -2.453720
H	 -2.859646	 0.717682	 -1.736307
H	 -1.467448	 1.776783	 -1.973526
C	 -1.415124	 -0.048626	 -3.816673
H	 -0.904030	 -0.853081	 -4.327879
H	 -2.478805	 -0.110421	 -4.039712
H	 -1.038995	 0.901784	 -4.189575

8 5 3 6 F

5 8 11 13 F

11 8 5 3 F

