%nprocshared=1
%mem=2GB
#HF/6-31G* nosymm scf=tight 

Mol

0 1
H	 -3.269016	 -0.876744	 0.468090
C	 -2.809304	 0.000122	 0.025886
N	 -1.391456	 0.000019	 0.300661
H	 -3.037557	 -0.000063	 -1.044252
H	 -3.269223	 0.876956	 0.468000
C	 -0.655889	 -0.862400	 -0.603199
C	 -1.098358	 -0.332322	 1.681042
H	 -0.965676	 -1.907174	 -0.503275
H	 -0.860636	 -0.554460	 -1.623402
C	 0.837930	 -0.759689	 -0.337633
H	 -1.625833	 0.362211	 2.326760
H	 -1.437435	 -1.342008	 1.932177
C	 0.395461	 -0.229610	 1.946608
H	 1.365405	 -1.454221	 -0.983350
H	 1.177006	 0.249998	 -0.588767
N	 1.131028	 -1.092029	 1.042749
H	 0.600208	 -0.537551	 2.966811
H	 0.705248	 0.815164	 1.846684
C	 2.548875	 -1.092133	 1.317524
H	 3.049863	 -1.795511	 0.661747
H	 2.724913	 -1.405893	 2.340457
H	 3.011425	 -0.110211	 1.179054
