%nprocshared=1
%mem=2GB
#HF/6-31G* nosymm scf=tight 

Mol

0 1
H	 -1.304371	 -2.366307	 0.474839
N	 -0.957679	 -1.431874	 0.572896
C	 -1.723188	 -0.510043	 -0.247670
H	 -0.002805	 -1.434369	 0.270705
C	 -1.431663	 -0.757693	 -1.712872
H	 -2.801221	 -0.578120	 -0.095315
H	 -1.423040	 0.504123	 -0.002396
O	 -0.088814	 -0.446451	 -1.951562
H	 -1.624663	 -1.800379	 -1.964262
H	 -2.078333	 -0.132993	 -2.325083
C	 0.295968	 -0.548357	 -3.285402
H	 1.077210	 -1.293847	 -3.345427
H	 -0.534823	 -0.858547	 -3.916710
H	 0.680852	 0.397273	 -3.661511

8 5 3 6 F

6 3 2 4 F

11 8 5 3 F

