%nprocshared=1
%mem=2GB
#HF/6-31G* nosymm scf=tight 

Mol

0 1
O	 0.140869	 0.678673	 1.728230
C	 0.228671	 -0.187425	 0.918348
C	 1.386847	 -1.147929	 0.790578
O	 -0.698257	 -0.426125	 0.001050
C	 2.478072	 -0.909270	 1.826548
H	 1.774368	 -1.057177	 -0.219788
H	 0.984587	 -2.153891	 0.864678
H	 2.887778	 0.089570	 1.738081
H	 3.284091	 -1.622710	 1.691815
H	 2.090941	 -1.017376	 2.832414
C	 -1.853104	 0.406779	 0.000512
C	 -3.066105	 -0.499277	 -0.000959
H	 -1.828410	 1.043074	 -0.873618
H	 -1.829857	 1.042383	 0.875188
H	 -3.071820	 -1.133106	 -0.880383
H	 -3.972708	 0.097145	 -0.001528
H	 -3.073405	 -1.133813	 0.877999

4 2 3 6 F

11 4 2 3 F

