%nprocshared=1
%mem=2GB
#HF/6-31G* nosymm scf=tight 

Mol

0 1
H	 -0.009419	 -5.875137	 1.786337
C	 0.324371	 -4.921578	 1.390031
C	 -0.846805	 -3.954059	 1.225051
H	 1.069190	 -4.523361	 2.073328
H	 0.816195	 -5.113004	 0.440446
C	 -0.420312	 -2.599563	 0.668417
H	 -1.339738	 -3.796025	 2.179216
H	 -1.588724	 -4.396714	 0.562477
N	 -1.551359	 -1.700050	 0.554102
H	 0.300799	 -2.145782	 1.342988
H	 0.096768	 -2.742306	 -0.286377
C	 -1.217365	 -0.386708	 0.039277
H	 -2.251478	 -2.118052	 -0.029119
C	 -2.452633	 0.504241	 -0.042481
H	 -0.494956	 0.063367	 0.714937
H	 -0.734474	 -0.434352	 -0.942522
C	 -3.758029	 -0.289423	 -0.010781
H	 -2.394220	 1.093569	 -0.952170
H	 -2.440793	 1.210787	 0.785871
H	 -3.816659	 -0.981993	 -0.845726
H	 -4.617837	 0.370165	 -0.069296
H	 -3.847478	 -0.867502	 0.904682

10 6 9 12 F

