%nprocshared=1
%mem=2GB
#HF/6-31G* nosymm scf=tight 
prop=(read,field)

Mol

0 1
H	 2.569008	 0.643710	 0.217741
O	 2.064677	 -0.086916	 -0.111837
C	 0.745848	 0.005114	 0.354742
H	 0.739223	 0.037652	 1.444966
C	 -0.063941	 -1.194879	 -0.122764
C	 -0.046084	 1.193539	 -0.190441
H	 0.197602	 -1.376069	 -1.160700
H	 0.163073	 -2.097982	 0.431848
C	 -1.535564	 -0.752181	 0.006632
H	 0.154730	 1.271311	 -1.255571
H	 0.226427	 2.140457	 0.267292
C	 -1.508975	 0.801501	 0.065607
H	 -2.127579	 -1.112198	 -0.826857
H	 -1.986631	 -1.158412	 0.905551
H	 -2.183452	 1.254103	 -0.651995
H	 -1.821509	 1.144316	 1.047079

@grid.dat /N
