%nprocshared=1
%mem=2GB
#HF/6-31G* nosymm scf=tight 

Mol

0 1
O	 -2.796348	 1.274709	 0.433760
C	 -2.655162	 0.111424	 0.230163
C	 -3.789634	 -0.880335	 0.204581
O	 -1.481751	 -0.454642	 0.000584
H	 -4.501203	 -0.575520	 -0.553456
H	 -3.443728	 -1.883124	 0.001597
H	 -4.297733	 -0.852465	 1.161105
C	 -0.334255	 0.388708	 0.000906
C	 0.891947	 -0.504646	 0.000751
H	 -0.365390	 1.025305	 -0.873475
H	 -0.365484	 1.024911	 0.875569
C	 0.838286	 -1.556101	 -1.109219
H	 0.972990	 -0.989855	 0.969484
H	 1.777328	 0.114301	 -0.115286
C	 2.066380	 -2.468149	 -1.125975
H	 -0.057155	 -2.163911	 -0.991577
H	 0.746717	 -1.061544	 -2.074677
C	 2.012105	 -3.519181	 -2.233789
H	 2.159189	 -2.963432	 -0.162048
H	 2.961939	 -1.862600	 -1.245782
H	 1.144243	 -4.162811	 -2.121673
H	 2.895411	 -4.149905	 -2.219882
H	 1.953372	 -3.053728	 -3.213541

13 9 8 10 F

16 12 9 13 F

19 15 12 16 F

1 2 4 8 F

