%nprocshared=1
%mem=2GB
#HF/6-31G* nosymm scf=tight 

Mol

0 1
O	 1.825465	 1.324323	 -0.951462
C	 0.788116	 1.716284	 -1.379704
C	 -0.516134	 0.957269	 -1.353318
O	 0.640172	 2.906476	 -1.947763
C	 -0.823008	 0.326187	 0.001381
H	 -1.299814	 1.647936	 -1.652547
H	 -0.470175	 0.205508	 -2.136556
C	 -0.637582	 -1.191885	 -0.010152
H	 -1.840876	 0.571413	 0.287735
H	 -0.182015	 0.770553	 0.756348
C	 -1.752278	 -1.924558	 -0.758819
H	 0.320871	 -1.437951	 -0.464922
H	 -0.591506	 -1.560573	 1.013483
C	 -1.952232	 -1.409835	 -2.183716
H	 -2.682926	 -1.824904	 -0.204649
H	 -1.526934	 -2.988305	 -0.787123
H	 -2.213172	 -0.355267	 -2.186971
H	 -2.748310	 -1.948664	 -2.688071
H	 -1.047767	 -1.527509	 -2.773976
C	 1.792514	 3.724689	 -2.034891
H	 2.180449	 3.940881	 -1.049855
H	 1.472688	 4.634305	 -2.518819
H	 2.560106	 3.239076	 -2.620117

15 11 8 12 F

9 5 8 12 F

1 2 3 6 F

1 2 4 20 F

