%nprocshared=1
%mem=2GB
#HF/6-31G* nosymm scf=tight 

Mol

0 1
O	 -5.197026	 4.014969	 1.769673
C	 -4.255868	 4.235592	 1.070885
C	 -3.146633	 3.220190	 0.862338
C	 -4.107003	 5.554837	 0.341097
C	 -3.349624	 1.912700	 1.622271
H	 -3.061817	 3.034439	 -0.207565
H	 -2.206596	 3.689995	 1.148725
C	 -2.213558	 0.915694	 1.387551
H	 -4.295552	 1.471407	 1.324597
H	 -3.439144	 2.127606	 2.682436
C	 -2.259874	 0.272531	 0.000494
H	 -1.256192	 1.418216	 1.517815
H	 -2.252334	 0.135159	 2.146055
C	 -2.299309	 1.292585	 -1.138781
H	 -3.132554	 -0.374729	 -0.066614
H	 -1.392545	 -0.373130	 -0.125436
C	 -3.566352	 2.147124	 -1.131721
H	 -1.427462	 1.940154	 -1.072741
H	 -2.220829	 0.772174	 -2.091079
H	 -3.656394	 2.706940	 -0.205088
H	 -3.564796	 2.860504	 -1.950126
H	 -4.455333	 1.530813	 -1.231810
H	 -4.048786	 5.390479	 -0.730918
H	 -4.951710	 6.191983	 0.563243
H	 -3.189175	 6.052059	 0.641090

9 5 8 12 F

15 11 8 12 F

1 2 3 6 F

9 5 3 6 F

