%nprocshared=1
%mem=2GB
#HF/6-31G* nosymm scf=tight 

Mol

0 1
H	 -2.276678	 -0.507102	 3.280058
C	 -1.434776	 -0.513990	 2.612056
C	 -1.293143	 -1.523325	 1.665798
C	 -0.477988	 0.477697	 2.679616
H	 -2.029302	 -2.304604	 1.598707
C	 -0.214951	 -1.535461	 0.807572
H	 -0.571045	 1.266379	 3.405154
C	 0.616038	 0.479909	 1.820801
H	 -0.093391	 -2.308938	 0.072187
C	 0.747496	 -0.530747	 0.881454
H	 1.343080	 1.264832	 1.898078
O	 1.765256	 -0.628444	 0.000000
C	 2.778419	 0.335181	 0.000000
H	 2.731280	 0.961222	 -0.884976
H	 3.711703	 -0.207767	 0.000000
H	 2.731280	 0.961222	 0.884976

13 12 10 8 F

