%nprocshared=1
%mem=2GB
#HF/6-31G* nosymm scf=tight 

Mol

0 1
H	 1.111016	 -1.113903	 1.075939
N	 0.281281	 -0.593754	 0.866274
C	 -0.664866	 -1.410146	 0.126400
H	 0.554144	 0.191148	 0.307182
C	 -0.142910	 -1.667827	 -1.271562
H	 -0.877120	 -2.371254	 0.596741
H	 -1.603810	 -0.870330	 0.050466
O	 -0.088814	 -0.446451	 -1.951562
H	 0.849693	 -2.115418	 -1.226397
H	 -0.806136	 -2.358173	 -1.788078
C	 0.295968	 -0.548357	 -3.285402
H	 1.077210	 -1.293847	 -3.345427
H	 -0.534823	 -0.858547	 -3.916710
H	 0.680852	 0.397273	 -3.661511

8 5 3 6 F

6 3 2 4 F

11 8 5 3 F

