%nprocshared=1
%mem=2GB
#HF/6-31G* nosymm scf=tight 

Mol

0 1
H	 1.291194	 -0.383057	 1.072079
N	 0.334667	 -0.185742	 0.850503
C	 -0.296929	 -1.335178	 0.226814
H	 0.329063	 0.585948	 0.212088
C	 0.268049	 -1.545060	 -1.162389
H	 -0.176932	 -2.261482	 0.790343
H	 -1.361839	 -1.141825	 0.141011
O	 -0.088814	 -0.446451	 -1.951562
H	 1.353013	 -1.637239	 -1.117734
H	 -0.135823	 -2.461570	 -1.586808
C	 0.295968	 -0.548357	 -3.285402
H	 1.077210	 -1.293847	 -3.345427
H	 -0.534823	 -0.858547	 -3.916710
H	 0.680852	 0.397273	 -3.661511

8 5 3 6 F

6 3 2 4 F

11 8 5 3 F

