%nprocshared=1
%mem=2GB
#HF/6-31G* nosymm scf=tight 

Mol

0 1
O	 -3.853486	 4.767425	 2.367791
C	 -3.589812	 4.457530	 1.246542
C	 -2.652680	 3.307590	 0.923494
C	 -4.178810	 5.198743	 0.063816
C	 -2.933125	 2.035105	 1.717450
H	 -2.717326	 3.115698	 -0.146734
H	 -1.633034	 3.650735	 1.093720
C	 -3.827323	 2.287324	 2.932586
H	 -1.991270	 1.599788	 2.036101
H	 -3.396316	 1.302751	 1.063798
C	 -3.098328	 2.998763	 4.073705
H	 -4.689371	 2.881358	 2.632513
H	 -4.223114	 1.339900	 3.295635
C	 -2.427416	 4.304188	 3.642711
H	 -2.347966	 2.330620	 4.492705
H	 -3.803318	 3.205478	 4.876982
C	 -1.161275	 4.080549	 2.816542
H	 -3.133344	 4.898824	 3.066606
H	 -2.182908	 4.891931	 4.525113
H	 -1.378524	 3.524093	 1.909178
H	 -0.709132	 5.023762	 2.525652
H	 -0.420890	 3.518159	 3.378408
H	 -4.744894	 4.518640	 -0.565967
H	 -4.826996	 5.989572	 0.414927
H	 -3.388670	 5.622899	 -0.548887

9 5 8 12 F

15 11 8 12 F

15 11 14 18 F

1 2 3 6 F

