%nprocshared=1
%mem=2GB
#HF/6-31G* nosymm scf=tight 

Mol

0 1
H	 1.355365	 0.667995	 -2.567906
C	 0.624089	 0.460388	 -1.795208
C	 1.322923	 0.120767	 -0.479465
H	 -0.008175	 1.336858	 -1.693155
H	 0.004960	 -0.363005	 -2.137696
C	 0.306652	 -0.176050	 0.621399
H	 1.948980	 0.949355	 -0.164943
H	 1.964127	 -0.743591	 -0.605969
N	 -1.068537	 -0.011044	 0.085269
H	 0.372515	 -1.192590	 0.973735
H	 0.391664	 0.520566	 1.441230
O	 -1.656956	 -0.997225	 -0.235017
O	 -1.478635	 1.104830	 -0.018026

12 9 6 3 F

