%nprocshared=1
%mem=2GB
#HF/6-31G* nosymm scf=tight 

Mol

0 1
H	 -3.571158	 0.540474	 0.139285
O	 -3.106200	 -0.271124	 -0.011510
C	 -1.775819	 -0.076055	 -0.001477
C	 -0.949237	 -0.550221	 -1.015838
C	 -1.241574	 0.625989	 1.071735
H	 -1.371385	 -1.093432	 -1.844103
C	 0.409060	 -0.320270	 -0.952816
H	 -1.899683	 0.981518	 1.841647
C	 0.118855	 0.847979	 1.120590
H	 1.058568	 -0.680350	 -1.728433
C	 0.959468	 0.381006	 0.115139
H	 0.533370	 1.391965	 1.952046
C	 2.413601	 0.626283	 0.181068
O	 2.944812	 1.354954	 0.960563
H	 3.008251	 0.078777	 -0.557712

7 11 13 14 F

