%nprocshared=1
%mem=2GB
#HF/6-31G* nosymm scf=tight 

Mol

0 1
H	 -0.944757	 -0.000069	 1.678017
O	 -0.042387	 -0.000390	 1.388199
C	 -0.001487	 0.000018	 -0.026623
C	 -0.237576	 -1.419504	 -0.546104
C	 -1.060477	 0.961651	 -0.569252
C	 1.400229	 0.480947	 -0.384839
H	 -0.170846	 -1.461344	 -1.628552
H	 -1.225274	 -1.775492	 -0.262150
H	 0.497135	 -2.098956	 -0.128297
H	 -1.028730	 1.015248	 -1.652861
H	 -2.058763	 0.637859	 -0.283744
H	 -0.903231	 1.957329	 -0.169531
H	 1.535895	 0.516798	 -1.460969
H	 2.144062	 -0.186390	 0.035709
H	 1.570425	 1.472728	 0.018643
