%nprocshared=1
%mem=2GB
#HF/6-31G* nosymm scf=tight 

Mol

0 1
O	 -1.830690	 -2.223144	 -4.688032
C	 -2.566042	 -1.732569	 -3.886142
C	 -2.216125	 -0.418128	 -3.210783
C	 -3.889026	 -2.371364	 -3.526934
C	 -1.047154	 -0.600408	 -2.229242
H	 -3.094061	 -0.082537	 -2.669569
H	 -1.965584	 0.336890	 -3.950515
C	 0.149006	 -1.302371	 -2.876593
H	 -0.761240	 0.377482	 -1.858608
H	 -1.378610	 -1.178470	 -1.368006
C	 0.075323	 -1.399736	 -4.404711
H	 0.247240	 -2.302033	 -2.457363
H	 1.057485	 -0.767858	 -2.606759
C	 -1.053427	 -2.288511	 -4.930067
H	 1.023541	 -1.787350	 -4.768483
H	 -0.024340	 -0.400645	 -4.824201
H	 -0.984148	 -3.291584	 -4.518035
H	 -1.004790	 -2.372263	 -6.011279
H	 -2.032469	 -1.894716	 -4.678683
H	 -3.867209	 -2.698708	 -2.490771
H	 -4.075875	 -3.221541	 -4.168083
H	 -4.699721	 -1.654361	 -3.619035

6 3 2 1 F

6 3 5 8 F

12 8 11 15 F

