%nprocshared=1
%mem=2GB
#HF/6-31G* nosymm scf=tight opt=ModRedundant

Mol

0 1
H	 2.379000	 -1.210000	 -0.172000
O	 1.700000	 -0.629000	 -0.485000
C	 1.181000	 0.114000	 0.590000
C	 0.076000	 1.018000	 0.067000
H	 1.961000	 0.725000	 1.041000
H	 0.801000	 -0.549000	 1.364000
C	 -1.090000	 0.287000	 -0.608000
H	 0.518000	 1.710000	 -0.644000
H	 -0.295000	 1.613000	 0.900000
C	 -1.875000	 -0.644000	 0.318000
H	 -0.711000	 -0.277000	 -1.454000
H	 -1.768000	 1.035000	 -1.011000
H	 -2.734000	 -1.062000	 -0.198000
H	 -1.268000	 -1.476000	 0.660000
H	 -2.241000	 -0.115000	 1.194000
