%nprocshared=1
%mem=2GB
#HF/6-31G* nosymm scf=tight 

Mol

0 1
H	 -1.179568	 1.680005	 -1.726989
C	 -0.942008	 0.935001	 -0.993544
C	 -1.922187	 0.455778	 -0.062352
C	 0.290998	 0.417947	 -0.917595
H	 -2.921733	 0.851616	 -0.097924
C	 -1.601428	 -0.476628	 0.846052
H	 1.081069	 0.722693	 -1.577385
N	 0.640212	 -0.532897	 -0.000111
H	 -2.307410	 -0.858418	 1.557516
C	 -0.259650	 -1.039142	 0.928458
C	 2.010177	 -1.032049	 0.000042
O	 0.068463	 -1.878337	 1.729894
H	 2.187698	 -1.635381	 -0.882279
H	 2.677579	 -0.189247	 -0.001871
H	 2.188882	 -1.632203	 0.884288
