%nprocshared=1
%mem=2GB
#HF/6-31G* nosymm scf=tight 

Mol

0 1
H	 2.332609	 0.878551	 -1.051851
C	 2.357710	 0.000000	 -0.417167
C	 1.175432	 0.000000	 0.532082
H	 3.291263	 0.000000	 0.136880
H	 2.332609	 -0.878551	 -1.051851
O	 0.000000	 0.000000	 -0.221444
H	 1.206604	 0.877321	 1.177902
H	 1.206604	 -0.877321	 1.177902
C	 -1.175432	 0.000000	 0.532082
C	 -2.348132	 0.225158	 -0.402227
H	 -1.135938	 0.783946	 1.288134
H	 -1.284292	 -0.949029	 1.056715
H	 -2.245280	 1.174447	 -0.915625
H	 -3.281436	 0.231016	 0.152209
H	 -2.393842	 -0.560958	 -1.147370
