%nprocshared=1
%mem=2GB
#HF/6-31G* nosymm scf=tight 

Mol

0 1
H	 -2.453823	 1.489712	 2.081964
C	 -2.048332	 0.481050	 2.130127
O	 -0.773905	 0.417866	 1.575887
H	 -1.968026	 0.185224	 3.167035
H	 -2.738923	 -0.192888	 1.624835
C	 -0.719715	 0.768384	 0.229244
C	 0.719720	 0.768376	 -0.229267
H	 -1.286865	 0.055162	 -0.370214
H	 -1.147112	 1.756115	 0.068854
O	 1.392611	 -0.295398	 0.366430
H	 0.750534	 0.687200	 -1.313918
H	 1.185043	 1.714359	 0.050526
C	 2.706965	 -0.449871	 -0.062409
H	 2.756559	 -0.644779	 -1.131878
H	 3.305899	 0.433456	 0.155466
H	 3.125548	 -1.294566	 0.467107

7 10 13 14 F

2 3 6 7 F

