%nprocshared=1
%mem=2GB
#HF/6-31G* nosymm scf=tight 

Mol

0 1
H	 -0.944757	 -0.000069	 1.678017
O	 -0.042387	 -0.000390	 1.388199
C	 -0.001487	 0.000018	 -0.026623
C	 0.733286	 -1.248704	 -0.517989
C	 -1.427026	 0.046206	 -0.580112
C	 0.766046	 1.262434	 -0.402947
H	 0.818816	 -1.257913	 -1.599884
H	 0.203230	 -2.150769	 -0.220963
H	 1.729909	 -1.289396	 -0.092426
H	 -1.429614	 0.087608	 -1.664718
H	 -1.985892	 -0.837970	 -0.282063
H	 -1.949053	 0.917371	 -0.200064
H	 0.854434	 1.357150	 -1.480426
H	 1.761856	 1.236936	 0.025071
H	 0.256419	 2.139004	 -0.019150
