%nprocshared=1
%mem=2GB
#HF/6-31G* nosymm scf=tight 

Mol

0 1
O	 -0.682937	 1.318834	 -0.186099
C	 -0.860635	 0.152188	 -0.042321
C	 -2.173363	 -0.477127	 0.338347
O	 0.083258	 -0.765189	 -0.202595
H	 -2.477673	 -1.180929	 -0.427595
H	 -2.923125	 0.290956	 0.455536
H	 -2.058825	 -1.029004	 1.264191
C	 0.408394	 -1.179386	 -1.527557
C	 -0.744833	 -1.921286	 -2.177403
H	 1.300280	 -1.786805	 -1.500666
H	 0.623262	 -0.260412	 -2.053692
H	 -0.496180	 -2.156268	 -3.207784
H	 -0.949236	 -2.848555	 -1.657057
H	 -1.641378	 -1.310867	 -2.173969

10 8 4 2 F

