%nprocshared=1
%mem=2GB
#HF/6-31G* nosymm scf=tight opt=ModRedundant

Mol

0 1
H	 1.175000	 -1.064000	 0.775000
O	 1.345000	 -0.633000	 -0.052000
C	 0.736000	 0.625000	 -0.044000
C	 -0.767000	 0.581000	 0.048000
H	 1.030000	 1.108000	 -0.969000
H	 1.127000	 1.239000	 0.767000
C	 -1.504000	 -0.508000	 -0.036000
H	 -1.242000	 1.539000	 0.193000
H	 -1.066000	 -1.476000	 -0.198000
H	 -2.575000	 -0.466000	 0.040000
