%nprocshared=1
%mem=2GB
#HF/6-31G* nosymm scf=tight 

Mol

0 1
H	 -3.064305	 -1.247362	 1.267108
C	 -2.576119	 -0.346432	 0.900855
O	 -1.244016	 -0.584697	 0.578261
H	 -3.076276	 -0.018895	 -0.000092
H	 -2.672227	 0.430302	 1.658401
C	 -0.464942	 -1.010795	 1.650983
C	 0.924820	 -1.340513	 1.158994
H	 -0.401065	 -0.226959	 2.406772
H	 -0.898570	 -1.892706	 2.118106
O	 1.392611	 -0.295398	 0.366430
H	 1.579018	 -1.501047	 2.013547
H	 0.890922	 -2.266049	 0.582863
C	 2.706965	 -0.449871	 -0.062409
H	 2.756559	 -0.644779	 -1.131878
H	 3.305899	 0.433456	 0.155466
H	 3.125548	 -1.294566	 0.467107

3 6 7 11 F

2 3 6 7 F

