%nprocshared=1
%mem=2GB
#HF/6-31G* nosymm scf=tight 

Mol

0 1
O	 0.259157	 0.731838	 -1.784906
C	 0.788116	 1.716284	 -1.379704
C	 1.703188	 1.792234	 -0.181897
O	 0.640172	 2.906476	 -1.947763
C	 2.763657	 0.695644	 -0.158633
H	 2.157438	 2.779337	 -0.182440
H	 1.078741	 1.755025	 0.706585
C	 3.569649	 0.640033	 -1.457227
H	 2.284164	 -0.261752	 0.019318
H	 3.429851	 0.860180	 0.682451
C	 2.781391	 0.044260	 -2.624943
H	 3.900604	 1.642861	 -1.723309
H	 4.473725	 0.053820	 -1.299482
C	 1.447224	 0.749479	 -2.865601
H	 2.602954	 -1.011988	 -2.436154
H	 3.384903	 0.094571	 -3.528480
H	 0.806599	 0.686419	 -1.990479
H	 0.912483	 0.304865	 -3.699160
H	 1.594766	 1.801959	 -3.091051
C	 1.792514	 3.724689	 -2.034891
H	 2.180449	 3.940881	 -1.049855
H	 1.472688	 4.634305	 -2.518819
H	 2.560106	 3.239076	 -2.620117

15 11 8 12 F

9 5 8 12 F

1 2 3 6 F

9 5 3 6 F

