%nprocshared=1
%mem=2GB
#HF/6-31G* nosymm scf=tight 
prop=(read,field)

Mol

0 1
H	 -3.420924	 1.227403	 -1.044350
O	 -3.452268	 0.283880	 -0.965651
C	 -3.181346	 -0.079894	 0.364045
C	 -1.766185	 0.277105	 0.805062
H	 -3.328052	 -1.151985	 0.410829
H	 -3.905959	 0.375727	 1.036824
C	 -0.677855	 -0.417280	 -0.014624
H	 -1.638027	 1.358270	 0.744895
H	 -1.659849	 0.017702	 1.857024
C	 0.738074	 -0.034808	 0.421311
H	 -0.815238	 -0.178191	 -1.064706
H	 -0.802991	 -1.495378	 0.071628
C	 1.822004	 -0.738330	 -0.399809
H	 0.853272	 1.043564	 0.342176
H	 0.871336	 -0.279604	 1.474364
C	 3.257799	 -0.455742	 0.057129
H	 1.717742	 -0.459135	 -1.447127
H	 1.650767	 -1.811852	 -0.354587
C	 3.708882	 0.994829	 -0.123904
H	 3.930376	 -1.101685	 -0.502056
H	 3.364998	 -0.739486	 1.102213
H	 3.600917	 1.310601	 -1.158201
H	 4.753526	 1.110518	 0.148442
H	 3.135101	 1.678928	 0.492495

@grid.dat /N
