%nprocshared=1
%mem=2GB
#HF/6-31G* nosymm scf=tight 

Mol

0 1
O	 1.732136	 1.539661	 1.267614
C	 0.797705	 1.337422	 0.539164
C	 -0.251244	 2.413515	 0.329839
N	 0.623947	 0.147590	 -0.102813
H	 -1.235597	 2.073211	 0.632041
H	 0.031440	 3.261514	 0.934845
H	 -0.305632	 2.720863	 -0.708987
C	 1.665360	 -0.855771	 0.000151
C	 -0.345703	 -0.071884	 -1.153458
H	 2.465253	 -0.618490	 -0.692587
H	 1.257730	 -1.821716	 -0.242189
H	 2.081488	 -0.891645	 1.004627
H	 -0.678570	 -1.102435	 -1.118758
H	 -1.214014	 0.555550	 -1.029784
H	 0.075844	 0.111312	 -2.140145

8 4 2 3 F

