%nprocshared=1
%mem=2GB
#HF/6-31G* nosymm scf=tight 

Mol

0 1
O	 0.531430	 -0.707368	 2.215382
C	 -0.009994	 -0.938659	 1.183520
C	 -1.398402	 -1.499169	 1.039583
O	 0.550821	 -0.724572	 0.000672
H	 -2.013848	 -0.811160	 0.471644
H	 -1.827279	 -1.659179	 2.017516
H	 -1.360524	 -2.434096	 0.492722
C	 1.863949	 -0.193559	 -0.000319
H	 2.028859	 0.409284	 -0.881648
H	 2.526261	 -1.045082	 -0.000003
H	 2.029520	 0.410555	 0.880008

8 4 2 1 F

