%nprocshared=1
%mem=2GB
#HF/6-31G* nosymm scf=tight 

Mol

0 1
H	 2.240232	 -0.608465	 0.097620
C	 1.732269	 -0.733819	 -0.866259
C	 0.446839	 0.037741	 -1.018912
O	 2.200745	 -1.438610	 -1.700483
C	 -0.558097	 -0.297372	 0.091132
H	 0.037681	 -0.174269	 -1.999790
H	 0.689632	 1.098940	 -0.977211
C	 -1.850991	 0.512573	 -0.019058
H	 -0.792583	 -1.358695	 0.053934
H	 -0.101851	 -0.115928	 1.062613
C	 -3.096943	 -0.368295	 -0.099594
H	 -1.800724	 1.150330	 -0.898172
H	 -1.931651	 1.177355	 0.838044
H	 -3.060452	 -1.020287	 -0.967456
H	 -3.996858	 0.233488	 -0.175704
H	 -3.191959	 -0.995686	 0.782074

6 3 5 9 F

4 2 3 6 F

