%nprocshared=1
%mem=2GB
#HF/6-31G* nosymm scf=tight 

Mol

0 1
O	 -0.185724	 0.879678	 -4.658431
C	 -1.217200	 0.996776	 -4.069552
C	 -1.285358	 0.779650	 -2.568047
C	 -2.493656	 1.395964	 -4.775728
C	 -1.098338	 -0.705968	 -2.220049
H	 -2.262300	 1.109783	 -2.232039
H	 -0.533340	 1.377360	 -2.060860
C	 0.149006	 -1.302371	 -2.876593
H	 -1.041982	 -0.796006	 -1.141113
H	 -1.974333	 -1.269677	 -2.537243
C	 0.075323	 -1.399736	 -4.404711
H	 0.333252	 -2.291829	 -2.462161
H	 1.010808	 -0.694391	 -2.609189
C	 -1.053427	 -2.288511	 -4.930067
H	 1.023541	 -1.787350	 -4.768483
H	 -0.024340	 -0.400645	 -4.824201
H	 -0.984148	 -3.291584	 -4.518035
H	 -1.004790	 -2.372263	 -6.011279
H	 -2.032469	 -1.894716	 -4.678683
H	 -3.202378	 0.572638	 -4.742379
H	 -2.283743	 1.647361	 -5.806028
H	 -2.960669	 2.240616	 -4.277463

6 3 2 1 F

6 3 5 8 F

3 5 8 12 F

