%nprocshared=1
%mem=2GB
#HF/6-31G* nosymm scf=tight 

Mol

0 1
H	 1.996292	 1.914351	 1.614608
O	 2.880395	 1.629777	 1.434469
C	 3.008615	 0.263346	 1.735269
C	 2.311417	 -0.642323	 0.726108
H	 4.071868	 0.060448	 1.735010
H	 2.640761	 0.058176	 2.739942
C	 0.791350	 -0.468681	 0.680142
H	 2.730733	 -0.449213	 -0.257888
H	 2.550082	 -1.674866	 0.975631
C	 0.115918	 -1.429151	 -0.302766
H	 0.557154	 0.555947	 0.405085
H	 0.378388	 -0.628302	 1.676296
C	 0.579824	 -2.886769	 -0.200376
H	 -0.962673	 -1.384160	 -0.163255
H	 0.305065	 -1.078020	 -1.315006
C	 0.727785	 -3.417141	 1.228361
H	 -0.136855	 -3.511425	 -0.729518
H	 1.526011	 -3.000648	 -0.727253
C	 1.089510	 -4.903113	 1.278129
H	 -0.203924	 -3.256926	 1.769064
H	 1.489685	 -2.852392	 1.760217
C	 1.244105	 -5.433542	 2.703053
H	 0.324002	 -5.477389	 0.760738
H	 2.015148	 -5.066637	 0.730097
H	 0.323796	 -5.314109	 3.267847
H	 1.498359	 -6.488998	 2.704892
H	 2.028698	 -4.903778	 3.236090

14 10 7 4 F

10 7 4 8 F

8 4 3 2 F

10 13 16 20 F

20 16 19 22 F

4 3 2 1 F

