%nprocshared=1
%mem=2GB
#HF/6-31G* nosymm scf=tight 

Mol

0 1
H	 -3.161837	 0.500524	 -0.000234
C	 -2.367097	 -0.232926	 -0.000000
O	 -1.158440	 0.455814	 -0.000122
H	 -2.468853	 -0.861886	 -0.882833
H	 -2.468942	 -0.861421	 0.883154
C	 -1.058687	 1.440634	 0.983775
C	 0.300233	 2.109559	 0.871797
H	 -1.182068	 0.997128	 1.972703
H	 -1.854304	 2.176601	 0.860266
C	 1.261406	 1.333302	 -0.027343
H	 0.158244	 3.115426	 0.488742
H	 0.717724	 2.210073	 1.868942
H	 0.872874	 1.242355	 -1.037885
H	 2.222581	 1.832505	 -0.088858
H	 1.435827	 0.330175	 0.351759

6 3 2 4 F

8 6 3 2 F

