%nprocshared=1
%mem=2GB
#HF/6-31G* nosymm scf=tight opt=ModRedundant

Mol

0 1
H	 -2.724000	 -0.001000	 -0.006000
C	 -1.718000	 -0.000000	 0.393000
O	 -0.854000	 -0.001000	 -0.700000
H	 -1.599000	 0.883000	 1.015000
H	 -1.599000	 -0.882000	 1.016000
C	 0.535000	 0.000000	 -0.462000
C	 1.006000	 1.270000	 0.245000
C	 1.008000	 -1.269000	 0.245000
H	 0.956000	 0.000000	 -1.460000
H	 0.611000	 2.147000	 -0.255000
H	 2.091000	 1.325000	 0.223000
H	 0.700000	 1.300000	 1.285000
H	 0.614000	 -2.147000	 -0.255000
H	 2.092000	 -1.322000	 0.225000
H	 0.700000	 -1.299000	 1.286000
