%nprocshared=1
%mem=2GB
#HF/6-31G* nosymm scf=tight 

Mol

0 1
H	 -3.847979	 -2.029548	 0.750341
C	 -2.777783	 -1.925351	 0.775012
C	 -2.037123	 -2.620728	 1.718951
C	 -2.143633	 -1.096385	 -0.136910
H	 -2.530179	 -3.263295	 2.425611
C	 -0.661104	 -2.486239	 1.750050
H	 -2.719428	 -0.558136	 -0.867905
C	 -0.766325	 -0.960218	 -0.107655
H	 -0.071960	 -3.016625	 2.473425
C	 -0.021168	 -1.655797	 0.837159
H	 -0.271438	 -0.319823	 -0.811431
C	 1.463013	 -1.545621	 0.912827
O	 1.970282	 -0.730723	 0.000018
O	 2.133797	 -2.125886	 1.707937
C	 3.377318	 -0.566646	 -0.000065
H	 3.695437	 -0.028981	 -0.881264
H	 3.789299	 -1.563704	 0.000236
H	 3.695516	 -0.028316	 0.880770

10 12 13 15 F

13 12 10 6 F

