%nprocshared=1
%mem=2GB
#HF/6-31G* nosymm scf=tight 

Mol

0 1
H	 -5.142515	 5.683968	 3.993261
C	 -5.108941	 4.828075	 3.307737
C	 -6.238023	 3.841527	 3.464294
O	 -4.226680	 4.729696	 2.517998
C	 -5.749886	 2.386312	 3.482350
H	 -6.786229	 4.089262	 4.365852
H	 -6.907284	 3.984246	 2.616723
C	 -5.185108	 1.915271	 2.139799
H	 -4.986764	 2.289060	 4.248816
H	 -6.567901	 1.734612	 3.785493
C	 -6.253274	 1.803461	 1.050150
H	 -4.702535	 0.949627	 2.275822
H	 -4.404607	 2.597377	 1.808003
C	 -7.144331	 3.045428	 0.963640
H	 -5.764775	 1.628538	 0.094899
H	 -6.873700	 0.928992	 1.241876
C	 -8.476090	 2.930578	 1.714174
H	 -7.340708	 3.275648	 -0.082366
H	 -6.595566	 3.895780	 1.362978
C	 -9.441535	 1.892099	 1.140506
H	 -8.962502	 3.902772	 1.700334
H	 -8.281521	 2.704290	 2.760528
H	 -9.641833	 2.084110	 0.089658
H	 -9.050397	 0.883621	 1.223924
H	 -10.390864	 1.916855	 1.666962

6 3 5 8 F

6 3 2 4 F

3 5 8 12 F

12 8 11 14 F

20 17 14 18 F

