%nprocshared=1
%mem=2GB
#HF/6-31G* nosymm scf=tight 

Mol

0 1
O	 0.904336	 0.709163	 -2.000444
C	 0.788116	 1.716284	 -1.379704
C	 0.791944	 1.825718	 0.125579
O	 0.640172	 2.906476	 -1.947763
C	 1.921615	 1.042547	 0.787493
H	 0.846858	 2.882084	 0.374156
H	 -0.179396	 1.489538	 0.478002
C	 3.292109	 1.402083	 0.211696
H	 1.738128	 -0.020474	 0.667050
H	 1.909284	 1.231456	 1.856357
C	 3.523971	 0.823689	 -1.185286
H	 3.397637	 2.485292	 0.172735
H	 4.073130	 1.044839	 0.881221
C	 2.423575	 1.199602	 -2.176784
H	 3.595365	 -0.259616	 -1.118252
H	 4.483812	 1.169532	 -1.562428
H	 1.455067	 0.836838	 -1.844205
H	 2.616348	 0.775314	 -3.157228
H	 2.350274	 2.277453	 -2.291561
C	 1.792514	 3.724689	 -2.034891
H	 2.180449	 3.940881	 -1.049855
H	 1.472688	 4.634305	 -2.518819
H	 2.560106	 3.239076	 -2.620117

15 11 8 12 F

9 5 8 12 F

1 2 3 6 F

9 5 3 6 F

