%nprocshared=1
%mem=2GB
#HF/6-31G* nosymm scf=tight 

Mol

0 1
H	 -3.457960	 0.166880	 1.449720
O	 -3.367910	 -0.300316	 2.267454
C	 -3.043259	 -1.643282	 2.012310
C	 -1.609705	 -1.833855	 1.529264
H	 -3.184960	 -2.163733	 2.950780
H	 -3.740919	 -2.074362	 1.295219
C	 -1.410107	 -3.065944	 0.643270
H	 -1.306964	 -0.941680	 0.987288
H	 -0.964574	 -1.908449	 2.403111
C	 -1.580754	 -4.380026	 1.410659
H	 -0.418632	 -3.030496	 0.200453
H	 -2.122986	 -3.038534	 -0.180982
C	 -2.821859	 -4.445003	 2.308309
H	 -1.604494	 -5.207115	 0.703405
H	 -0.699725	 -4.536269	 2.029591
C	 -2.803367	 -3.488447	 3.503775
H	 -3.695812	 -4.222316	 1.699678
H	 -2.954577	 -5.465378	 2.664763
C	 -4.105069	 -3.513853	 4.307743
H	 -2.620690	 -2.474845	 3.149726
H	 -1.976729	 -3.733358	 4.166338
C	 -4.086861	 -2.564632	 5.505370
H	 -4.936192	 -3.255095	 3.655236
H	 -4.294282	 -4.527806	 4.654130
H	 -3.931939	 -1.537003	 5.188824
H	 -5.023263	 -2.604036	 6.053306
H	 -3.288588	 -2.820170	 6.196618

14 10 7 4 F

14 10 13 16 F

10 7 4 8 F

10 13 16 20 F

20 16 19 22 F

4 3 2 1 F

