%nprocshared=1
%mem=2GB
#HF/6-31G* nosymm scf=tight 

Mol

0 1
H	 -1.033395	 1.664957	 -0.785158
C	 -0.384928	 0.806752	 -0.967538
N	 0.538815	 0.649616	 0.000000
O	 -0.513851	 0.110054	 -1.930449
C	 1.521968	 -0.411503	 0.000000
H	 0.538395	 1.301545	 0.750514
H	 2.150599	 -0.357004	 -0.881901
H	 0.999455	 -1.354525	 0.000000
H	 2.150599	 -0.357004	 0.881901

1 2 3 6 F

