%nprocshared=1
%mem=2GB
#HF/6-31G* nosymm scf=tight 

Mol

0 1
H	 -2.798360	 -0.862255	 -0.071053
N	 -1.863561	 -0.715187	 0.256814
C	 -1.344686	 0.554728	 -0.219830
H	 -1.300452	 -1.461917	 -0.101532
C	 0.081427	 0.741154	 0.254071
H	 -1.362155	 0.656231	 -1.305829
H	 -1.952773	 1.354456	 0.191809
O	 0.070485	 0.840062	 1.649487
H	 0.695032	 -0.104231	 -0.056492
H	 0.497464	 1.645236	 -0.185000
C	 1.314782	 1.100425	 2.216503
H	 1.182187	 1.153233	 3.288570
H	 2.028769	 0.310742	 1.989336
H	 1.722215	 2.045811	 1.864290

6 3 2 4 F

5 8 11 13 F

11 8 5 3 F

