%nprocshared=1
%mem=2GB
#HF/6-31G* nosymm scf=tight 

Mol

0 1
H	 -3.110015	 5.679236	 1.278865
C	 -3.757996	 4.856105	 0.952985
C	 -3.934195	 3.747190	 1.958903
O	 -4.260621	 4.881901	 -0.123330
C	 -3.778335	 2.354346	 1.332845
H	 -3.228173	 3.902484	 2.766446
H	 -4.938301	 3.844745	 2.369888
C	 -4.902224	 1.994114	 0.357958
H	 -2.824839	 2.314999	 0.814597
H	 -3.724214	 1.607086	 2.123054
C	 -6.253274	 1.803461	 1.050150
H	 -4.634353	 1.082972	 -0.172997
H	 -4.994541	 2.768456	 -0.401260
C	 -7.144331	 3.045428	 0.963640
H	 -6.759475	 0.950440	 0.605350
H	 -6.089580	 1.551128	 2.097010
C	 -8.476090	 2.930578	 1.714174
H	 -7.340708	 3.275648	 -0.082366
H	 -6.595566	 3.895780	 1.362978
C	 -9.441535	 1.892099	 1.140506
H	 -8.962502	 3.902772	 1.700334
H	 -8.281521	 2.704290	 2.760528
H	 -9.641833	 2.084110	 0.089658
H	 -9.050397	 0.883621	 1.223924
H	 -10.390864	 1.916855	 1.666962

6 3 5 8 F

6 3 2 4 F

3 5 8 12 F

8 11 14 18 F

20 17 14 18 F

