%nprocshared=1
%mem=2GB
#HF/6-31G* nosymm scf=tight 

Mol

0 1
H	 -0.944757	 -0.000069	 1.678017
O	 -0.042387	 -0.000390	 1.388199
C	 -0.001487	 0.000018	 -0.026623
C	 0.734416	 1.248371	 -0.517236
C	 0.693633	 -1.270742	 -0.519188
C	 -1.460706	 0.023990	 -0.467675
H	 0.746875	 1.300410	 -1.601226
H	 1.766711	 1.247851	 -0.174786
H	 0.254033	 2.141936	 -0.134101
H	 0.706347	 -1.320357	 -1.603377
H	 1.724766	 -1.305123	 -0.174929
H	 0.183307	 -2.148885	 -0.139306
H	 -1.539828	 0.026651	 -1.550024
H	 -1.953942	 0.909315	 -0.082441
H	 -1.982058	 -0.846027	 -0.084721
