%nprocshared=1
%mem=2GB
#HF/6-31G* nosymm scf=tight 

Mol

0 1
H	 -3.489899	 1.228218	 -1.029938
O	 -3.452007	 0.283848	 -0.965577
C	 -3.181085	 -0.079926	 0.364119
C	 -1.765924	 0.277073	 0.805136
H	 -3.327791	 -1.152017	 0.410903
H	 -3.905698	 0.375695	 1.036898
C	 -1.599062	 1.747701	 1.189750
H	 -1.486183	 -0.356952	 1.646990
H	 -1.081780	 0.025795	 -0.003583
C	 -1.741576	 2.699291	 0.000068
H	 -0.628370	 1.886394	 1.655832
H	 -2.339721	 2.002307	 1.946053
C	 -2.975301	 2.398946	 -0.855385
H	 -1.784610	 3.721590	 0.368133
H	 -0.850148	 2.636361	 -0.622829
C	 -2.926783	 1.062185	 -1.604300
H	 -3.121300	 3.205938	 -1.571726
H	 -3.853328	 2.402496	 -0.212834
C	 -4.255854	 0.635356	 -2.230234
H	 -2.605397	 0.289930	 -0.909589
H	 -2.162574	 1.110708	 -2.377496
H	 -5.042694	 0.590310	 -1.481908
H	 -4.171739	 -0.349537	 -2.679398
H	 -4.577562	 1.320265	 -3.007773

20 16 13 17 F

17 13 10 7 F

13 10 7 11 F

11 7 4 3 F

1 2 3 5 F

