%nprocshared=1
%mem=2GB
#HF/6-31G* nosymm scf=tight 

Mol

0 1
O	 -2.042549	 -1.228399	 -0.269030
C	 -1.653912	 -0.146171	 0.050137
C	 -0.332303	 0.024011	 0.778412
C	 -2.438579	 1.106236	 -0.272369
C	 -0.265944	 1.387443	 1.484473
H	 -0.190122	 -0.774233	 1.501581
H	 0.460330	 -0.041681	 0.041297
C	 -0.198731	 2.557049	 0.501348
H	 0.602229	 1.420285	 2.140431
H	 -1.140243	 1.490996	 2.120098
C	 -1.241650	 2.455055	 -0.610912
H	 -0.335397	 3.491552	 1.041211
H	 0.795427	 2.598877	 0.062636
H	 -2.249197	 2.445394	 -0.204945
H	 -1.109635	 1.545345	 -1.189222
H	 -1.168616	 3.295287	 -1.294068
H	 -3.277823	 0.863061	 -0.908988
H	 -1.806773	 1.843019	 -0.759671
H	 -2.802853	 1.554979	 0.648059

11 8 5 9 F

9 5 3 2 F

