%nprocshared=1
%mem=2GB
#HF/6-31G* nosymm scf=tight opt=ModRedundant

Mol

0 1
H	 -0.000000	 -1.861000	 0.320000
N	 -0.000000	 -1.022000	 -0.225000
C	 1.047000	 -0.043000	 0.086000
C	 -1.047000	 -0.043000	 0.086000
H	 1.887000	 -0.047000	 -0.599000
H	 1.428000	 -0.110000	 1.104000
C	 0.000000	 1.077000	 -0.068000
H	 -1.428000	 -0.110000	 1.104000
H	 -1.887000	 -0.047000	 -0.599000
H	 0.000000	 1.866000	 0.672000
H	 0.000000	 1.512000	 -1.059000
