%nprocshared=1
%mem=2GB
#HF/6-31G* nosymm scf=tight 

Mol

0 1
H	 2.866480	 -0.465706	 0.876907
C	 2.405773	 -0.024801	 0.000000
N	 0.988830	 -0.304158	 0.000000
H	 2.866480	 -0.465706	 -0.876907
H	 2.629928	 1.045948	 0.000000
C	 0.575701	 -1.069303	 1.161829
C	 0.552902	 -0.953666	 -1.222324
H	 1.068800	 -2.046098	 1.196815
H	 0.853107	 -0.527357	 2.060487
C	 -0.930488	 -1.270927	 1.134763
H	 0.813614	 -0.327045	 -2.069449
H	 1.044340	 -1.922034	 -1.361069
C	 -0.952682	 -1.158356	 -1.186165
H	 -1.245457	 -1.914586	 1.945635
H	 -1.429314	 -0.309222	 1.240909
O	 -1.331282	 -1.890863	 -0.054773
H	 -1.283659	 -1.720819	 -2.049360
H	 -1.452552	 -0.191355	 -1.189215
