%nprocshared=1
%mem=2GB
#HF/6-31G* nosymm scf=tight 

Mol

0 1
O	 -0.488453	 0.057968	 1.132425
C	 -0.451170	 -1.129930	 1.097049
C	 0.801727	 -1.959116	 0.945507
O	 -1.528589	 -1.897310	 1.185968
C	 1.124911	 -2.785238	 2.184071
H	 1.613075	 -1.280220	 0.700432
H	 0.669725	 -2.590969	 0.072237
H	 1.272053	 -2.149836	 3.048928
H	 2.030738	 -3.360307	 2.024106
H	 0.320287	 -3.472711	 2.414906
C	 -1.694533	 -2.663074	 2.374862
C	 -0.621287	 -3.730980	 2.380337
H	 -2.686669	 -3.093433	 2.381365
H	 -1.610801	 -2.007649	 3.231015
H	 -0.715529	 -4.375606	 1.513888
H	 -0.711393	 -4.340711	 3.273509
H	 0.366286	 -3.283978	 2.368251

2 4 11 13 F

4 2 3 6 F

