%nprocshared=1
%mem=2GB
#HF/6-31G* nosymm scf=tight 

Mol

0 1
O	 0.347820	 1.546513	 -0.219309
C	 0.140502	 1.681556	 -1.381988
C	 0.062876	 0.565942	 -2.395534
O	 -0.054281	 2.863688	 -1.952602
C	 -0.798671	 -0.607879	 -1.940317
H	 -0.312206	 0.993873	 -3.321246
H	 1.080250	 0.248634	 -2.607711
C	 -2.197864	 -0.168223	 -1.506348
H	 -0.303108	 -1.119723	 -1.121210
H	 -0.873659	 -1.331168	 -2.746377
C	 -2.199563	 0.540614	 -0.152631
H	 -2.621078	 0.493034	 -2.259810
H	 -2.853244	 -1.035615	 -1.459677
H	 -1.579829	 1.432240	 -0.176851
H	 -3.202950	 0.841999	 0.131373
H	 -1.814244	 -0.107528	 0.629086
C	 1.065166	 3.726192	 -2.042424
H	 1.444631	 3.960080	 -1.058153
H	 0.709774	 4.621320	 -2.528624
H	 1.850932	 3.269393	 -2.626729

9 5 8 12 F

1 2 3 6 F

9 5 3 6 F

