%nprocshared=1
%mem=2GB
#HF/6-31G* nosymm scf=tight 

Mol

0 1
H	 -1.070890	 -1.366565	 0.180696
O	 -1.422729	 -0.573567	 -0.196946
C	 -0.731407	 0.539437	 0.309156
C	 0.680193	 0.672443	 -0.251532
H	 -1.319765	 1.404033	 0.030086
H	 -0.700012	 0.506517	 1.397677
C	 1.656521	 -0.371275	 0.291736
H	 0.630841	 0.598356	 -1.333993
H	 1.047386	 1.669287	 -0.016987
H	 1.357838	 -1.377180	 0.012203
H	 2.655040	 -0.212969	 -0.101794
H	 1.719617	 -0.326655	 1.376306

1 2 3 4 F

