%nprocshared=1
%mem=2GB
#HF/6-31G* nosymm scf=tight 

Mol

0 1
H	 -2.240291	 0.559484	 0.604969
C	 -2.008299	 -0.205926	 -0.129530
O	 -0.774054	 0.001095	 -0.743181
H	 -2.752932	 -0.160639	 -0.912984
H	 -2.076115	 -1.178578	 0.348530
C	 -0.348732	 -0.871340	 -1.774922
C	 0.886440	 -0.179066	 -2.346863
C	 0.034681	 -2.244606	 -1.214276
C	 -1.421005	 -1.007778	 -2.860616
H	 1.637167	 -0.056860	 -1.574266
H	 0.624014	 0.804552	 -2.719693
H	 1.316055	 -0.755056	 -3.160084
H	 0.740437	 -2.133086	 -0.397881
H	 0.498759	 -2.849705	 -1.986344
H	 -0.827013	 -2.792171	 -0.847929
H	 -1.737564	 -0.027505	 -3.201066
H	 -1.026927	 -1.553685	 -3.711628
H	 -2.294748	 -1.544998	 -2.507631

2 3 6 7 F

