%nprocshared=1
%mem=2GB
#HF/6-31G* nosymm scf=tight 

Mol

0 1
H	 -1.236695	 -3.917660	 -0.738320
O	 -1.729638	 -3.450552	 -1.398021
C	 -2.211758	 -2.247100	 -0.862996
C	 -1.121871	 -1.501305	 -0.113595
H	 -2.630923	 -1.605221	 -1.632834
H	 -3.008578	 -2.504263	 -0.179333
O	 -0.043959	 -1.331029	 -0.978982
H	 -0.819173	 -2.067981	 0.769146
H	 -1.505465	 -0.542606	 0.230405
C	 -0.381609	 -0.813417	 -2.226865
H	 0.366496	 -0.106062	 -2.579876
H	 -0.435693	 -1.641239	 -2.920182
H	 -1.346371	 -0.311084	 -2.200645

8 4 3 5 F

1 2 3 5 F

10 7 4 8 F

