%nprocshared=1
%mem=2GB
#HF/6-31G* nosymm scf=tight 

Mol

0 1
O	 -0.644987	 -1.652990	 1.664992
C	 -1.514987	 -1.440192	 0.882411
C	 -2.775474	 -2.260464	 0.784449
O	 -1.481751	 -0.454642	 0.000584
H	 -3.283566	 -2.233162	 1.740984
H	 -3.433286	 -1.897333	 0.008654
H	 -2.505502	 -3.290827	 0.586090
C	 -0.334255	 0.388708	 0.000906
C	 0.891947	 -0.504646	 0.000751
H	 -0.365390	 1.025305	 -0.873475
H	 -0.365484	 1.024911	 0.875569
C	 0.838286	 -1.556101	 -1.109219
H	 0.972990	 -0.989855	 0.969484
H	 1.777328	 0.114301	 -0.115286
C	 -0.004883	 -1.115451	 -2.307226
H	 1.848644	 -1.781185	 -1.446263
H	 0.435398	 -2.485574	 -0.710668
C	 -0.057346	 -2.165133	 -3.416407
H	 0.396556	 -0.186938	 -2.706957
H	 -1.015486	 -0.892335	 -1.972607
H	 0.936548	 -2.385120	 -3.795608
H	 -0.661612	 -1.824071	 -4.251137
H	 -0.486405	 -3.095680	 -3.055850

13 9 8 10 F

2 4 8 10 F

19 15 12 16 F

1 2 4 8 F

