%nprocshared=1
%mem=2GB
#HF/6-31G* nosymm scf=tight 

Mol

0 1
H	 -1.652018	 -1.614382	 -0.109594
C	 -1.808907	 -0.542941	 -0.040739
N	 -0.528168	 0.128977	 -0.000000
H	 -2.352479	 -0.347214	 0.876461
H	 -2.438504	 -0.244299	 -0.883168
C	 0.248044	 -0.037491	 -1.209632
H	 -0.663017	 1.103147	 0.183948
H	 0.998722	 0.743888	 -1.266824
H	 -0.398417	 0.061950	 -2.074060
H	 0.763621	 -0.999315	 -1.275517
