%nprocshared=1
%mem=2GB
#HF/6-31G* nosymm scf=tight 

Mol

0 1
H	 -3.457960	 0.166880	 1.449720
O	 -3.367910	 -0.300316	 2.267454
C	 -3.043259	 -1.643282	 2.012310
C	 -1.609705	 -1.833855	 1.529264
H	 -3.184960	 -2.163733	 2.950780
H	 -3.740919	 -2.074362	 1.295219
C	 -1.314720	 -1.174099	 0.179978
H	 -0.935821	 -1.437562	 2.284379
H	 -1.414703	 -2.902721	 1.459510
C	 0.025288	 -1.616806	 -0.414336
H	 -1.318577	 -0.094527	 0.301939
H	 -2.113372	 -1.413324	 -0.522352
C	 0.274084	 -3.129296	 -0.385806
H	 0.097506	 -1.259537	 -1.440002
H	 0.826299	 -1.125793	 0.134287
C	 0.440765	 -3.728719	 1.013261
H	 -0.562262	 -3.622488	 -0.876828
H	 1.154022	 -3.360134	 -0.984355
C	 0.580899	 -5.252368	 0.996161
H	 -0.417065	 -3.454704	 1.625760
H	 1.313034	 -3.301449	 1.502023
C	 0.753851	 -5.852672	 2.390932
H	 -0.295336	 -5.689073	 0.521830
H	 1.431739	 -5.528495	 0.376717
H	 -0.097099	 -5.621539	 3.025507
H	 0.848421	 -6.933243	 2.345579
H	 1.643406	 -5.463341	 2.878249

14 10 7 4 F

14 10 13 16 F

8 4 3 2 F

10 13 16 20 F

20 16 19 22 F

4 3 2 1 F

