%nprocshared=1
%mem=2GB
#HF/6-31G* nosymm scf=tight 
prop=(read,field)

Mol

0 1
H	 -2.026096	 0.209836	 -0.097125
N	 -1.172325	 -0.314427	 -0.100261
C	 -0.024750	 0.565509	 0.069202
H	 -1.229529	 -0.966380	 0.659188
C	 1.271090	 -0.229619	 -0.014199
H	 -0.049617	 1.297254	 -0.731603
H	 -0.047089	 1.125163	 1.006743
H	 1.331944	 -0.753089	 -0.961468
H	 2.133961	 0.422427	 0.080695
H	 1.325869	 -0.968354	 0.781388

@grid.dat /N
