%nprocshared=1
%mem=2GB
#HF/6-31G* nosymm scf=tight 

Mol

0 1
H	 -2.798360	 -0.862255	 -0.071053
N	 -1.863561	 -0.715187	 0.256814
C	 -1.344686	 0.554728	 -0.219830
H	 -1.300452	 -1.461917	 -0.101532
C	 -1.873092	 1.684311	 0.639219
H	 -0.255182	 0.608877	 -0.226944
H	 -1.685013	 0.707872	 -1.239392
O	 -3.259332	 1.756100	 0.465231
H	 -1.636264	 1.502847	 1.687370
H	 -1.406344	 2.620263	 0.340262
C	 -3.868352	 2.812728	 1.136202
H	 -4.928890	 2.764779	 0.929662
H	 -3.716379	 2.741639	 2.211763
H	 -3.485667	 3.772860	 0.796338

8 5 3 6 F

5 8 11 13 F

11 8 5 3 F

