%nprocshared=1
%mem=2GB
#HF/6-31G* nosymm scf=tight 

Mol

0 1
H	 3.296126	 -0.451502	 -0.007183
C	 2.237029	 -0.265136	 -0.005639
C	 1.754431	 0.970573	 0.407863
C	 1.362785	 -1.257891	 -0.415657
H	 2.439377	 1.736076	 0.724691
C	 0.394887	 1.213253	 0.411081
H	 1.739781	 -2.212483	 -0.734831
C	 -0.000913	 -1.013186	 -0.411968
H	 0.001734	 2.161319	 0.726918
C	 -0.488460	 0.219100	 0.000000
H	 -0.685521	 -1.780903	 -0.729570
C	 -1.949954	 0.470334	 0.000000
O	 -2.781584	 -0.381627	 0.000000
H	 -2.238022	 1.526388	 0.000000
