%nprocshared=1
%mem=2GB
#HF/6-31G* nosymm scf=tight 

Mol

0 1
H	 -11.179964	 1.115551	 0.593497
C	 -10.123212	 1.061682	 0.883319
C	 -9.147843	 1.500066	 -0.179266
O	 -9.819736	 0.678492	 1.966286
C	 -7.971895	 0.526100	 -0.336720
H	 -9.689151	 1.625129	 -1.109886
H	 -8.766982	 2.476030	 0.119221
C	 -7.034722	 0.500041	 0.873374
H	 -8.370489	 -0.469799	 -0.505812
H	 -7.408013	 0.782351	 -1.232337
C	 -6.253274	 1.803461	 1.050150
H	 -6.338495	 -0.329233	 0.766514
H	 -7.605489	 0.298791	 1.777953
C	 -7.144331	 3.045428	 0.963640
H	 -5.740423	 1.779291	 2.008341
H	 -5.477087	 1.864590	 0.288454
C	 -8.476090	 2.930578	 1.714174
H	 -7.340708	 3.275648	 -0.082366
H	 -6.595566	 3.895780	 1.362978
C	 -9.441535	 1.892099	 1.140506
H	 -8.962502	 3.902772	 1.700334
H	 -8.281521	 2.704290	 2.760528
H	 -9.641833	 2.084110	 0.089658
H	 -9.050397	 0.883621	 1.223924
H	 -10.390864	 1.916855	 1.666962

6 3 5 8 F

6 3 2 4 F

3 5 8 12 F

12 8 11 14 F

20 17 14 18 F

