%nprocshared=1
%mem=2GB
#HF/6-31G* nosymm scf=tight 

Mol

0 1
H	 0.561880	 -1.127418	 1.244033
C	 -0.457198	 -1.008962	 0.890776
N	 -0.528168	 0.128977	 -0.000000
H	 -1.088016	 -0.835163	 1.755009
H	 -0.760601	 -1.952132	 0.428560
C	 0.248044	 -0.037491	 -1.209632
H	 -1.482745	 0.316455	 -0.233801
H	 0.998722	 0.743888	 -1.266824
H	 -0.398417	 0.061950	 -2.074060
H	 0.763621	 -0.999315	 -1.275517
