%nprocshared=1
%mem=2GB
#HF/6-31G* nosymm scf=tight 

Mol

0 1
H	 -1.748661	 -2.220942	 -0.005015
C	 -1.343207	 -1.225221	 -0.013879
N	 -0.055091	 -1.100174	 -0.261126
C	 -2.150779	 -0.125890	 0.222726
C	 0.449969	 0.122615	 -0.277109
H	 -3.200618	 -0.238980	 0.422496
N	 -1.660212	 1.097703	 0.209594
C	 -0.371804	 1.219904	 -0.038265
C	 1.928147	 0.267347	 -0.541394
H	 0.029131	 2.217482	 -0.051283
C	 2.219406	 1.081862	 -1.806205
H	 2.380825	 0.756197	 0.314743
H	 2.379142	 -0.716447	 -0.624626
H	 3.289542	 1.189860	 -1.951617
H	 1.784760	 2.071678	 -1.729878
H	 1.807753	 0.598079	 -2.686436
