%nprocshared=1
%mem=2GB
#HF/6-31G* nosymm scf=tight 

Mol

0 1
H	 0.971572	 -0.894200	 2.029153
C	 0.030571	 -0.984041	 1.504033
O	 0.000000	 0.000000	 0.521119
H	 -0.037968	 -1.981289	 1.072189
H	 -0.783557	 -0.861303	 2.216648
C	 -1.165642	 0.000000	 -0.238270
H	 -1.228672	 0.883184	 -0.872070
H	 -2.003012	 0.000000	 0.445920
H	 -1.228672	 -0.883184	 -0.872070
