%nprocshared=1
%mem=2GB
#HF/6-31G* nosymm scf=tight 

Mol

0 1
O	 -1.276010	 1.052711	 -0.768302
C	 -1.204840	 0.067374	 -0.106123
C	 -2.388195	 -0.672128	 0.458071
O	 -0.067104	 -0.527208	 0.221609
H	 -2.388023	 -1.694060	 0.097175
H	 -3.300579	 -0.174919	 0.164318
H	 -2.315377	 -0.706351	 1.539059
C	 1.170111	 0.034140	 -0.238951
C	 1.758857	 0.775830	 0.948004
C	 0.911140	 0.935811	 -1.435851
H	 1.816736	 -0.780979	 -0.528718
H	 1.912670	 0.101579	 1.782853
H	 2.715185	 1.212238	 0.679087
H	 1.096392	 1.572388	 1.269389
H	 1.840650	 1.381938	 -1.774964
H	 0.488110	 0.371563	 -2.257220
H	 0.226492	 1.734243	 -1.167949

8 4 2 1 F

