%nprocshared=1
%mem=2GB
#HF/6-31G* nosymm scf=tight 

Mol

0 1
H	 -0.000158	 1.970498	 0.756846
O	 -0.000074	 1.880206	 -0.189275
C	 -0.000015	 0.544847	 -0.545111
C	 -1.396815	 0.126959	 -0.992665
C	 0.562278	 -0.296309	 0.596065
H	 0.660988	 0.428851	 -1.391115
F	 -1.763471	 0.849359	 -2.029606
F	 -1.450733	 -1.141380	 -1.340183
F	 -2.279864	 0.328366	 -0.027649
F	 1.795743	 0.080544	 0.856993
F	 0.581034	 -1.580269	 0.307147
F	 -0.151962	 -0.131639	 1.698029

7 4 3 6 F

