%nprocshared=1
%mem=2GB
#HF/6-31G* nosymm scf=tight 

Mol

0 1
H	 -2.698709	 -0.000305	 0.034435
C	 -1.693833	 0.000034	 0.434417
O	 -0.828952	 -0.000968	 -0.659236
H	 -1.574200	 0.882896	 1.055746
H	 -1.574147	 -0.881698	 1.057355
C	 0.559449	 -0.000018	 -0.420814
C	 0.898023	 0.102295	 1.065058
C	 1.270772	 -1.169137	 -1.099149
H	 0.891042	 0.913324	 -0.900277
H	 0.337760	 0.909891	 1.523797
H	 1.956422	 0.307524	 1.191183
H	 0.677827	 -0.815599	 1.600921
H	 0.967971	 -1.242022	 -2.138118
H	 2.345373	 -1.018495	 -1.067466
H	 1.059975	 -2.116342	 -0.613135

6 3 2 1 F

