%nprocshared=1
%mem=2GB
#HF/6-31G* nosymm scf=tight opt=ModRedundant

Mol

0 1
H	 2.333000	 -1.061000	 -0.879000
C	 2.359000	 -0.426000	 0.000000
C	 1.176000	 0.523000	 0.000000
H	 3.293000	 0.128000	 0.000000
H	 2.333000	 -1.061000	 0.879000
O	 0.000000	 -0.230000	 -0.000000
H	 1.207000	 1.169000	 -0.877000
H	 1.207000	 1.169000	 0.877000
C	 -1.176000	 0.523000	 -0.000000
C	 -2.359000	 -0.426000	 0.000000
H	 -1.207000	 1.169000	 -0.877000
H	 -1.207000	 1.169000	 0.877000
H	 -2.333000	 -1.061000	 -0.879000
H	 -3.293000	 0.128000	 -0.000000
H	 -2.333000	 -1.061000	 0.879000
