%nprocshared=1
%mem=2GB
#HF/6-31G* nosymm scf=tight opt=ModRedundant

Mol

0 1
H	 3.336000	 0.172000	 -0.764000
C	 2.625000	 -0.042000	 0.026000
C	 1.195000	 0.126000	 -0.487000
H	 2.806000	 -1.056000	 0.369000
H	 2.831000	 0.634000	 0.850000
C	 0.178000	 -0.172000	 0.614000
H	 1.016000	 -0.545000	 -1.321000
H	 1.039000	 1.138000	 -0.843000
N	 -1.197000	 -0.008000	 0.077000
H	 0.245000	 -1.188000	 0.966000
H	 0.263000	 0.525000	 1.433000
O	 -1.787000	 -0.995000	 -0.238000
O	 -1.606000	 1.108000	 -0.030000
