%nprocshared=1
%mem=2GB
#HF/6-31G* nosymm scf=tight 

Mol

0 1
O	 -2.042549	 -1.228399	 -0.269030
C	 -1.653912	 -0.146171	 0.050137
C	 -0.332303	 0.024011	 0.778412
C	 -2.438579	 1.106236	 -0.272369
C	 0.830382	 -0.537217	 -0.055290
H	 -0.153631	 1.071657	 1.004016
H	 -0.401028	 -0.517264	 1.715546
C	 0.776958	 -2.059688	 -0.190414
H	 1.778703	 -0.250515	 0.395900
H	 0.803116	 -0.079406	 -1.039570
C	 -0.607964	 -2.569757	 -0.586681
H	 1.506942	 -2.382986	 -0.929351
H	 1.073560	 -2.513097	 0.752462
H	 -0.918542	 -2.159882	 -1.543549
H	 -1.354264	 -2.289427	 0.150811
H	 -0.616825	 -3.651729	 -0.672042
H	 -3.277823	 0.863061	 -0.908988
H	 -1.806773	 1.843019	 -0.759671
H	 -2.802853	 1.554979	 0.648059

11 8 5 9 F

9 5 3 2 F

