%nprocshared=1
%mem=2GB
#HF/6-31G* nosymm scf=tight 

Mol

0 1
H	 -2.698709	 -0.000305	 0.034435
C	 -1.693833	 0.000034	 0.434417
O	 -0.828952	 -0.000968	 -0.659236
H	 -1.574200	 0.882896	 1.055746
H	 -1.574147	 -0.881698	 1.057355
C	 0.559449	 -0.000018	 -0.420814
C	 1.110944	 1.403831	 -0.180026
C	 0.965377	 -0.979659	 0.678496
H	 0.970155	 -0.361916	 -1.355898
H	 0.761920	 2.082439	 -0.950883
H	 2.195910	 1.386070	 -0.207722
H	 0.815972	 1.801179	 0.786034
H	 0.515035	 -1.950534	 0.502285
H	 2.044079	 -1.101266	 0.687386
H	 0.667843	 -0.637350	 1.664467

6 3 2 1 F

