%nprocshared=1
%mem=2GB
#HF/6-31G* nosymm scf=tight 

Mol

0 1
H	 -0.367348	 2.047014	 -0.308205
C	 0.352277	 1.337084	 0.083769
N	 -0.000016	 0.000074	 -0.335546
H	 1.328359	 1.600444	 -0.307950
H	 0.381933	 1.450534	 1.172486
C	 -0.470285	 -0.805547	 0.768126
C	 -0.936887	 0.008290	 -1.435710
H	 -0.656509	 -1.818828	 0.430582
H	 0.286946	 -0.845754	 1.543011
H	 -1.393198	 -0.422092	 1.215425
H	 -0.520312	 0.561954	 -2.269554
H	 -1.122339	 -1.006732	 -1.768541
H	 -1.899249	 0.461029	 -1.175301
