%nprocshared=1
%mem=2GB
#HF/6-31G* nosymm scf=tight opt=ModRedundant

Mol

0 1
H	 4.618000	 0.383000	 -0.075000
C	 3.758000	 -0.277000	 -0.017000
C	 2.453000	 0.516000	 -0.048000
H	 3.817000	 -0.969000	 -0.852000
H	 3.848000	 -0.856000	 0.898000
C	 1.217000	 -0.374000	 0.034000
H	 2.394000	 1.106000	 -0.957000
H	 2.441000	 1.223000	 0.781000
N	 0.000000	 0.410000	 -0.029000
H	 1.215000	 -1.063000	 -0.806000
H	 1.269000	 -0.991000	 0.938000
C	 -1.217000	 -0.374000	 0.034000
H	 0.000000	 1.085000	 0.713000
C	 -2.453000	 0.516000	 -0.048000
H	 -1.215000	 -1.063000	 -0.806000
H	 -1.270000	 -0.991000	 0.938000
C	 -3.758000	 -0.277000	 -0.017000
H	 -2.394000	 1.106000	 -0.958000
H	 -2.441000	 1.223000	 0.780000
H	 -3.817000	 -0.969000	 -0.852000
H	 -4.618000	 0.383000	 -0.075000
H	 -3.848000	 -0.856000	 0.898000
