%nprocshared=1
%mem=2GB
#HF/6-31G* nosymm scf=tight 

Mol

0 1
H	 -3.489899	 1.228218	 -1.029938
O	 -3.452007	 0.283848	 -0.965577
C	 -3.181085	 -0.079926	 0.364119
C	 -1.765924	 0.277073	 0.805136
H	 -3.327791	 -1.152017	 0.410903
H	 -3.905698	 0.375695	 1.036898
C	 -0.938333	 -0.933192	 1.239725
H	 -1.260056	 0.794384	 -0.010614
H	 -1.832550	 0.993051	 1.622546
C	 -1.450377	 -1.578996	 2.528883
H	 0.096387	 -0.630272	 1.367407
H	 -0.943462	 -1.671604	 0.439653
C	 -2.963577	 -1.811653	 2.515433
H	 -0.930883	 -2.521816	 2.682618
H	 -1.192986	 -0.946668	 3.377716
C	 -3.809346	 -0.533054	 2.519049
H	 -3.240413	 -2.426850	 3.370179
H	 -3.218515	 -2.391179	 1.630575
C	 -5.295179	 -0.752641	 2.228384
H	 -3.406027	 0.148507	 1.773999
H	 -3.699347	 -0.031853	 3.478685
H	 -5.435551	 -1.263890	 1.279670
H	 -5.821288	 0.195480	 2.172588
H	 -5.776681	 -1.346167	 2.998480

20 16 13 17 F

17 13 10 7 F

13 10 7 11 F

11 7 4 3 F

1 2 3 5 F

