%nprocshared=1
%mem=2GB
#HF/6-31G* nosymm scf=tight 

Mol

0 1
H	 -3.420663	 1.227371	 -1.044276
O	 -3.452007	 0.283848	 -0.965577
C	 -3.181085	 -0.079926	 0.364119
C	 -1.765924	 0.277073	 0.805136
H	 -3.327791	 -1.152017	 0.410903
H	 -3.905698	 0.375695	 1.036898
C	 -0.677594	 -0.417312	 -0.014550
H	 -1.637766	 1.358238	 0.744969
H	 -1.659588	 0.017670	 1.857098
C	 0.738335	 -0.034840	 0.421385
H	 -0.814977	 -0.178223	 -1.064632
H	 -0.802730	 -1.495410	 0.071702
C	 1.274242	 -0.926126	 1.544994
H	 1.399493	 -0.085558	 -0.440425
H	 0.747432	 1.002895	 0.752486
C	 0.546647	 -0.775301	 2.885893
H	 2.334867	 -0.725502	 1.688245
H	 1.202988	 -1.964815	 1.228978
C	 0.890867	 -1.848479	 3.920401
H	 -0.524546	 -0.801019	 2.701031
H	 0.758486	 0.207912	 3.301369
H	 0.700811	 -2.843878	 3.527722
H	 0.289395	 -1.727421	 4.816177
H	 1.932572	 -1.804545	 4.220540

20 16 13 17 F

17 13 10 7 F

11 7 4 3 F

1 2 3 5 F

7 4 3 2 F

