%nprocshared=1
%mem=2GB
#HF/6-31G* nosymm scf=tight 

Mol

0 1
O	 -0.682937	 1.318834	 -0.186099
C	 -0.860635	 0.152188	 -0.042321
C	 -2.173363	 -0.477127	 0.338347
O	 0.083258	 -0.765189	 -0.202595
H	 -2.477673	 -1.180929	 -0.427595
H	 -2.923125	 0.290956	 0.455536
H	 -2.058825	 -1.029004	 1.264191
C	 0.121501	 -1.491846	 -1.428689
C	 -1.095114	 -2.385336	 -1.584160
H	 1.036230	 -2.063103	 -1.474245
H	 0.142923	 -0.730013	 -2.194620
H	 -1.075634	 -2.866096	 -2.557413
H	 -1.107133	 -3.156519	 -0.824226
H	 -2.007559	 -1.803692	 -1.509670

10 8 4 2 F

