%nprocshared=1
%mem=2GB
#HF/6-31G* nosymm scf=tight 

Mol

0 1
O	 -0.806752	 -1.114546	 1.082146
C	 -0.561929	 -0.074560	 0.531515
C	 -1.597472	 1.034011	 0.503089
N	 0.623947	 0.147590	 -0.102813
H	 -1.868528	 1.298769	 -0.513038
H	 -2.472791	 0.671041	 1.019920
H	 -1.237628	 1.928840	 0.999450
C	 1.448648	 1.256738	 0.334835
C	 0.970492	 -0.411126	 -1.391218
H	 2.421491	 1.192852	 -0.140046
H	 1.569202	 1.214094	 1.403287
H	 0.999924	 2.211527	 0.069417
H	 2.041752	 -0.568360	 -1.432664
H	 0.494454	 -1.365452	 -1.551173
H	 0.697186	 0.253244	 -2.208977

2 4 8 10 F

