%nprocshared=1
%mem=2GB
#HF/6-31G* nosymm scf=tight 

Mol

0 1
H	 -2.885333	 -1.631414	 -0.296189
C	 -3.399623	 -0.750719	 0.108166
C	 -4.669205	 -0.368788	 -0.609400
O	 -2.949242	 -0.173366	 1.043886
C	 -4.750749	 1.136122	 -0.900694
H	 -4.737997	 -0.955021	 -1.518414
H	 -5.499384	 -0.654183	 0.035586
C	 -4.902224	 1.994114	 0.357958
H	 -3.851982	 1.432495	 -1.433296
H	 -5.581212	 1.328456	 -1.578260
C	 -6.253274	 1.803461	 1.050150
H	 -4.774882	 3.041481	 0.092151
H	 -4.103747	 1.762965	 1.060484
C	 -7.144331	 3.045428	 0.963640
H	 -6.759475	 0.950440	 0.605350
H	 -6.089580	 1.551128	 2.097010
C	 -8.476090	 2.930578	 1.714174
H	 -7.340708	 3.275648	 -0.082366
H	 -6.595566	 3.895780	 1.362978
C	 -9.441535	 1.892099	 1.140506
H	 -8.962502	 3.902772	 1.700334
H	 -8.281521	 2.704290	 2.760528
H	 -9.641833	 2.084110	 0.089658
H	 -9.050397	 0.883621	 1.223924
H	 -10.390864	 1.916855	 1.666962

6 3 5 8 F

6 3 2 4 F

3 5 8 12 F

8 11 14 18 F

20 17 14 18 F

