%nprocshared=1
%mem=2GB
#HF/6-31G* nosymm scf=tight 

Mol

0 1
O	 -2.324811	 1.361668	 -0.277141
C	 -2.105949	 0.203097	 -0.092081
C	 -0.889235	 -0.467034	 -0.705952
C	 -3.002726	 -0.644460	 0.782455
C	 -0.073342	 0.535031	 -1.538613
H	 -1.242919	 -1.267014	 -1.347234
H	 -0.263239	 -0.904419	 0.066609
C	 1.143991	 -0.116201	 -2.199379
H	 -0.729034	 0.965871	 -2.286831
H	 0.259514	 1.354201	 -0.903070
C	 2.032603	 0.854271	 -2.985896
H	 0.808734	 -0.912766	 -2.861053
H	 1.747712	 -0.592793	 -1.429815
C	 1.368759	 1.461602	 -4.223012
H	 2.928681	 0.322468	 -3.295606
H	 2.366847	 1.651609	 -2.325123
H	 1.015385	 0.685741	 -4.896727
H	 2.072330	 2.079548	 -4.772129
H	 0.520580	 2.086611	 -3.964658
H	 -3.496582	 -1.399307	 0.176174
H	 -3.747939	 -0.023774	 1.260148
H	 -2.421318	 -1.168775	 1.535358

6 3 5 8 F

3 5 8 12 F

12 8 11 15 F

