%nprocshared=1
%mem=2GB
#HF/6-31G* nosymm scf=tight 

Mol

0 1
O	 1.529065	 0.884756	 -1.795244
C	 0.788116	 1.716284	 -1.379704
C	 -0.092579	 1.578609	 -0.161800
O	 0.640172	 2.906476	 -1.947763
C	 0.635697	 1.008807	 1.051701
H	 -0.506243	 2.560306	 0.052367
H	 -0.938362	 0.956370	 -0.441423
C	 1.907715	 1.789891	 1.384773
H	 0.880045	 -0.032299	 0.865748
H	 -0.034434	 1.013371	 1.905641
C	 3.048423	 1.521921	 0.401494
H	 1.687508	 2.856375	 1.395603
H	 2.236438	 1.537516	 2.391814
C	 2.650561	 1.763697	 -1.054013
H	 3.388833	 0.495354	 0.517343
H	 3.896453	 2.154477	 0.654190
H	 1.826109	 1.120008	 -1.347543
H	 3.479725	 1.565678	 -1.726119
H	 2.337302	 2.792289	 -1.209503
C	 1.792514	 3.724689	 -2.034891
H	 2.180449	 3.940881	 -1.049855
H	 1.472688	 4.634305	 -2.518819
H	 2.560106	 3.239076	 -2.620117

15 11 8 12 F

9 5 8 12 F

1 2 3 6 F

9 5 3 6 F

