%nprocshared=1
%mem=2GB
#HF/6-31G* nosymm scf=tight 

Mol

0 1
H	 -2.083319	 2.160726	 0.775881
C	 -1.700233	 1.211071	 0.452188
C	 -2.555953	 0.194038	 0.064459
C	 -0.339948	 0.991007	 0.418333
H	 -3.620117	 0.346108	 0.083719
C	 -2.048867	 -1.023270	 -0.349973
H	 0.347970	 1.756313	 0.711338
C	 0.154804	 -0.237046	 -0.000077
H	 -2.729356	 -1.799658	 -0.647047
C	 -0.681226	 -1.285630	 -0.398264
N	 1.611208	 -0.370857	 -0.000034
C	 -0.237593	 -2.653564	 -0.868238
O	 2.274126	 0.622059	 -0.008063
O	 2.068510	 -1.474748	 0.007823
H	 0.331778	 -3.169819	 -0.107695
H	 -1.111277	 -3.245717	 -1.109912
H	 0.390525	 -2.588016	 -1.745903
