%nprocshared=1
%mem=2GB
#HF/6-31G* nosymm scf=tight 

Mol

0 1
O	 0.598383	 1.269367	 -3.986797
C	 -0.476350	 1.486309	 -3.515291
C	 -0.858766	 0.923573	 -2.157576
C	 -1.493915	 2.352446	 -4.223632
C	 -1.047154	 -0.600408	 -2.229242
H	 -1.791441	 1.389818	 -1.859186
H	 -0.104723	 1.170025	 -1.415479
C	 0.149006	 -1.302371	 -2.876593
H	 -1.207091	 -0.969049	 -1.222312
H	 -1.947897	 -0.832016	 -2.795605
C	 0.075323	 -1.399736	 -4.404711
H	 0.247240	 -2.302033	 -2.457363
H	 1.057485	 -0.767858	 -2.606759
C	 -1.053427	 -2.288511	 -4.930067
H	 1.023541	 -1.787350	 -4.768483
H	 -0.024340	 -0.400645	 -4.824201
H	 -0.984148	 -3.291584	 -4.518035
H	 -1.004790	 -2.372263	 -6.011279
H	 -2.032469	 -1.894716	 -4.678683
H	 -2.350676	 1.748630	 -4.511089
H	 -1.053572	 2.794116	 -5.106700
H	 -1.859913	 3.133572	 -3.563562

6 3 2 1 F

6 3 5 8 F

12 8 11 15 F

