%nprocshared=1
%mem=2GB
#HF/6-31G* nosymm scf=tight 

Mol

0 1
H	 0.520913	 -3.355335	 -0.750069
O	 0.895837	 -2.618051	 -0.278264
C	 0.102382	 -1.563045	 -0.462125
C	 0.624473	 -0.343591	 0.253101
O	 -0.886133	 -1.623171	 -1.118051
C	 -0.265902	 0.883932	 0.072916
H	 0.740303	 -0.614115	 1.297502
H	 1.628992	 -0.158063	 -0.118751
C	 -1.728698	 0.646073	 0.462102
H	 -0.209144	 1.219470	 -0.958188
H	 0.135059	 1.692851	 0.673903
C	 -2.515316	 1.909691	 0.821905
H	 -1.745146	 -0.027030	 1.316165
H	 -2.238756	 0.121557	 -0.344669
C	 -2.338869	 3.024538	 -0.208852
H	 -3.571300	 1.661685	 0.908132
H	 -2.206959	 2.279238	 1.796448
H	 -2.903670	 3.909149	 0.068234
H	 -2.679423	 2.708088	 -1.190540
H	 -1.295427	 3.313211	 -0.299039

16 12 9 6 F

7 4 6 10 F

5 3 4 7 F

1 2 3 5 F

