%nprocshared=1
%mem=2GB
#HF/6-31G* nosymm scf=tight 
prop=(read,field)

Mol

0 1
H	 2.003012	 0.000000	 0.445997
C	 1.165642	 -0.000000	 -0.238193
O	 -0.000000	 0.000000	 0.521196
H	 1.228672	 0.883184	 -0.871993
H	 1.228672	 -0.883184	 -0.871993
C	 -1.165642	 0.000000	 -0.238193
H	 -1.228672	 0.883184	 -0.871993
H	 -2.003012	 -0.000000	 0.445997
H	 -1.228672	 -0.883184	 -0.871993

@grid.dat /N
