%nprocshared=1
%mem=2GB
#HF/6-31G* nosymm scf=tight 

Mol

0 1
O	 -0.806752	 -1.114546	 1.082146
C	 -0.561929	 -0.074560	 0.531515
C	 -1.597472	 1.034011	 0.503089
N	 0.623947	 0.147590	 -0.102813
H	 -1.868528	 1.298769	 -0.513038
H	 -2.472791	 0.671041	 1.019920
H	 -1.237628	 1.928840	 0.999450
C	 0.751564	 1.319848	 -0.946260
C	 1.647786	 -0.858399	 -0.281660
H	 1.789989	 1.448531	 -1.231095
H	 0.419251	 2.188646	 -0.405243
H	 0.157525	 1.221264	 -1.852251
H	 2.619155	 -0.378341	 -0.286664
H	 1.643295	 -1.576840	 0.522552
H	 1.532733	 -1.392300	 -1.223215

2 4 8 10 F

