%nprocshared=1
%mem=2GB
#HF/6-31G* nosymm scf=tight 

Mol

0 1
H	 -3.110772	 1.863324	 0.019552
C	 -2.463973	 2.204868	 0.825245
O	 -1.120332	 2.076684	 0.488295
H	 -2.655858	 3.253229	 1.007624
H	 -2.706960	 1.641340	 1.725146
C	 -0.719715	 0.768384	 0.229244
C	 0.719720	 0.768376	 -0.229267
H	 -0.808904	 0.160213	 1.130281
H	 -1.341704	 0.318618	 -0.542018
O	 1.392611	 -0.295398	 0.366430
H	 0.750534	 0.687200	 -1.313918
H	 1.185043	 1.714359	 0.050526
C	 2.706965	 -0.449871	 -0.062409
H	 2.756559	 -0.644779	 -1.131878
H	 3.305899	 0.433456	 0.155466
H	 3.125548	 -1.294566	 0.467107

7 10 13 14 F

2 3 6 7 F

