%nprocshared=1
%mem=2GB
#HF/6-31G* nosymm scf=tight 

Mol

0 1
O	 -2.821601	 1.309235	 -0.001213
C	 -2.668563	 0.129746	 -0.000350
C	 -3.801572	 -0.864014	 -0.000442
O	 -1.481751	 -0.454642	 0.000584
H	 -4.417280	 -0.689587	 -0.874708
H	 -3.443784	 -1.883046	 -0.000565
H	 -4.417179	 -0.689832	 0.873954
C	 -0.334255	 0.388708	 0.000906
C	 0.891947	 -0.504646	 0.000751
H	 -0.365390	 1.025305	 -0.873475
H	 -0.365484	 1.024911	 0.875569
C	 1.051021	 -1.264525	 1.318989
H	 1.771165	 0.105906	 -0.185371
H	 0.815748	 -1.205423	 -0.826029
C	 2.283014	 -2.171227	 1.339252
H	 1.115259	 -0.555220	 2.142303
H	 0.161747	 -1.865084	 1.502300
C	 2.442591	 -2.929151	 2.656429
H	 3.172622	 -1.572641	 1.156582
H	 2.219345	 -2.882178	 0.518542
H	 2.542822	 -2.244121	 3.493508
H	 3.323897	 -3.562615	 2.640341
H	 1.582568	 -3.563740	 2.850507

2 4 8 10 F

16 12 9 13 F

19 15 12 16 F

1 2 4 8 F

