%nprocshared=1
%mem=2GB
#HF/6-31G* nosymm scf=tight 

Mol

0 1
O	 0.886743	 -1.754656	 -0.174831
C	 -0.018743	 -1.005124	 0.031886
C	 -1.293900	 -1.079501	 -0.789545
C	 0.041922	 0.028203	 1.134578
C	 -1.047154	 -0.600408	 -2.229242
H	 -2.028394	 -0.437577	 -0.315461
H	 -1.685026	 -2.092905	 -0.797324
C	 0.149006	 -1.302371	 -2.876593
H	 -1.949733	 -0.776348	 -2.803508
H	 -0.876552	 0.475057	 -2.233341
C	 0.075323	 -1.399736	 -4.404711
H	 0.247240	 -2.302033	 -2.457363
H	 1.057485	 -0.767858	 -2.606759
C	 -1.053427	 -2.288511	 -4.930067
H	 1.023541	 -1.787350	 -4.768483
H	 -0.024340	 -0.400645	 -4.824201
H	 -0.984148	 -3.291584	 -4.518035
H	 -1.004790	 -2.372263	 -6.011279
H	 -2.032469	 -1.894716	 -4.678683
H	 0.045544	 1.024964	 0.701312
H	 0.938070	 -0.110588	 1.723169
H	 -0.833686	 -0.039752	 1.773717

6 3 2 1 F

6 3 5 8 F

12 8 11 15 F

