%nprocshared=1
%mem=2GB
#HF/6-31G* nosymm scf=tight 

Mol

0 1
O	 1.524334	 0.159562	 -1.000945
C	 0.861134	 0.272526	 -0.014869
C	 -0.623889	 -0.118271	 -0.003699
C	 1.489259	 0.817600	 1.255705
C	 -0.895332	 -1.256461	 -1.002431
C	 -1.473649	 1.103340	 -0.370799
C	 -0.983900	 -0.581483	 1.422328
H	 -0.615301	 -0.972064	 -2.012700
H	 -1.954261	 -1.493213	 -1.010207
H	 -0.360539	 -2.164946	 -0.747760
H	 -1.227476	 1.468527	 -1.361691
H	 -2.526716	 0.838935	 -0.358521
H	 -1.314819	 1.915855	 0.325860
H	 -2.039679	 -0.828001	 1.472951
H	 -0.427637	 -1.464071	 1.720694
H	 -0.789023	 0.202493	 2.147048
H	 1.718468	 -0.004560	 1.927253
H	 2.412103	 1.318978	 0.998613
H	 0.836679	 1.499762	 1.786757
