%nprocshared=1
%mem=2GB
#HF/6-31G* nosymm scf=tight 

Mol

0 1
H	 -3.265009	 0.763222	 -0.464635
C	 -2.802131	 1.721225	 -0.236349
O	 -1.438094	 1.705284	 -0.509269
H	 -3.250289	 2.483606	 -0.858500
H	 -2.999059	 1.959348	 0.808134
C	 -0.719715	 0.768384	 0.229244
C	 0.719720	 0.768376	 -0.229267
H	 -0.757643	 1.014399	 1.291192
H	 -1.136994	 -0.228283	 0.100652
O	 1.392611	 -0.295398	 0.366430
H	 0.750534	 0.687200	 -1.313918
H	 1.185043	 1.714359	 0.050526
C	 2.706965	 -0.449871	 -0.062409
H	 2.756559	 -0.644779	 -1.131878
H	 3.305899	 0.433456	 0.155466
H	 3.125548	 -1.294566	 0.467107

7 10 13 14 F

2 3 6 7 F

