%nprocshared=1
%mem=2GB
#HF/6-31G* nosymm scf=tight 

Mol

0 1
H	 -1.671591	 2.458543	 -0.518336
C	 -0.650314	 2.096208	 -0.536491
C	 -0.603454	 0.661669	 0.000000
H	 -0.042052	 2.757007	 0.069152
H	 -0.289583	 2.140791	 -1.556945
C	 0.763625	 0.112519	 0.000000
H	 -0.978921	 0.619473	 1.015782
H	 -1.224884	 0.007161	 -0.600011
N	 1.813038	 -0.320305	 0.000000
