%nprocshared=1
%mem=2GB
#HF/6-31G* nosymm scf=tight 

Mol

0 1
H	 -2.646374	 -0.642757	 1.268656
C	 -2.083525	 -0.384536	 0.393091
O	 -0.807605	 -0.127164	 0.768327
F	 -2.118945	 -1.383102	 -0.486752
F	 -2.621877	 0.670592	 -0.209486
C	 0.034752	 -1.204991	 0.971820
C	 -0.059511	 -2.083519	 -0.268931
Cl	 -0.439721	 -2.113021	 2.416663
H	 1.060543	 -0.905200	 1.096930
F	 -1.246703	 -2.646590	 -0.344202
F	 0.842496	 -3.040617	 -0.180695
F	 0.158164	 -1.408212	 -1.370997

10 7 6 9 F

9 6 3 2 F

