%nprocshared=1
%mem=2GB
#HF/6-31G* nosymm scf=tight 

Mol

0 1
H	 2.866480	 -0.465706	 0.876907
C	 2.405773	 -0.024801	 0.000000
N	 0.988830	 -0.304158	 0.000000
H	 2.866480	 -0.465706	 -0.876907
H	 2.629928	 1.045948	 0.000000
C	 0.247162	 0.597100	 -0.862341
C	 0.426315	 -0.311591	 1.337718
H	 0.342591	 1.637351	 -0.534821
H	 0.644478	 0.530839	 -1.870307
C	 -1.222145	 0.208404	 -0.868896
H	 0.954815	 -1.043236	 1.940735
H	 0.534798	 0.662444	 1.825555
C	 -1.047743	 -0.676190	 1.272820
H	 -1.804838	 0.922686	 -1.435717
H	 -1.337777	 -0.773512	 -1.324352
O	 -1.743361	 0.199264	 0.430413
H	 -1.504642	 -0.599959	 2.250803
H	 -1.155170	 -1.699725	 0.918129
