%nprocshared=1
%mem=2GB
#HF/6-31G* nosymm scf=tight 

Mol

0 1
H	 -1.511955	 2.511367	 2.481853
O	 -1.243655	 1.776473	 1.949279
C	 -0.368446	 2.217024	 0.941762
C	 0.031547	 1.023609	 0.088541
H	 0.524326	 2.659717	 1.379791
H	 -0.842997	 2.982627	 0.332045
C	 -1.134819	 0.293262	 -0.585751
H	 0.567540	 0.323175	 0.722885
H	 0.736202	 1.368980	 -0.666045
C	 -1.917817	 -0.639439	 0.339494
H	 -0.758119	 -0.268455	 -1.433105
H	 -1.813832	 1.041889	 -0.986690
H	 -2.777680	 -1.057197	 -0.174994
H	 -1.310268	 -1.471279	 0.680599
H	 -2.283753	 -0.111424	 1.216626

2 3 4 8 F

1 2 3 4 F

