%nprocshared=1
%mem=2GB
#HF/6-31G* nosymm scf=tight 
prop=(read,field)

Mol

0 1
O	 -0.682984	 1.318883	 -0.186131
C	 -0.860682	 0.152237	 -0.042353
C	 -2.173410	 -0.477078	 0.338315
O	 0.083211	 -0.765140	 -0.202627
H	 -2.477720	 -1.180880	 -0.427627
H	 -2.923172	 0.291005	 0.455504
H	 -2.058872	 -1.028955	 1.264159
C	 1.391890	 -0.334688	 -0.569870
C	 2.197375	 0.093956	 0.642609
H	 1.313221	 0.464479	 -1.291177
H	 1.837109	 -1.196636	 -1.045606
H	 3.210212	 0.343060	 0.341215
H	 1.757366	 0.966195	 1.109470
H	 2.246209	 -0.708117	 1.371107

@grid.dat /N
