%nprocshared=1
%mem=2GB
#HF/6-31G* nosymm scf=tight 

Mol

0 1
O	 0.088274	 1.241200	 -0.222348
C	 0.028650	 0.075053	 -0.000277
C	 -1.233602	 -0.752807	 0.000328
O	 1.091131	 -0.666919	 0.283470
C	 -2.501530	 0.091881	 0.000126
H	 -1.193807	 -1.406641	 -0.865785
H	 -1.193516	 -1.405779	 0.867015
H	 -2.545121	 0.729328	 -0.874513
H	 -3.377167	 -0.548497	 0.000561
H	 -2.544818	 0.730135	 0.874258
C	 2.344532	 -0.008512	 0.316221
H	 2.568403	 0.429920	 -0.645586
H	 3.070715	 -0.768489	 0.559030
H	 2.347077	 0.766358	 1.069242

11 4 2 3 F

