%nprocshared=1
%mem=2GB
#HF/6-31G* nosymm scf=tight 

Mol

0 1
H	 -3.161837	 0.500524	 -0.000234
C	 -2.367097	 -0.232926	 -0.000000
O	 -1.158440	 0.455814	 -0.000122
H	 -2.468853	 -0.861886	 -0.882833
H	 -2.468942	 -0.861421	 0.883154
C	 -1.058687	 1.440634	 0.983775
C	 -2.448574	 1.971704	 1.288472
H	 -0.411100	 2.248964	 0.641526
H	 -0.605731	 1.026014	 1.885345
C	 -2.992721	 2.860203	 0.170727
H	 -3.111268	 1.127573	 1.452608
H	 -2.408817	 2.524912	 2.221788
H	 -3.063549	 2.317733	 -0.767960
H	 -3.984731	 3.225314	 0.414562
H	 -2.355662	 3.724769	 0.006150

6 3 2 4 F

11 7 6 8 F

