%nprocshared=1
%mem=2GB
#HF/6-31G* nosymm scf=tight 

Mol

0 1
H	 -2.240291	 0.559484	 0.604969
C	 -2.008299	 -0.205926	 -0.129530
O	 -0.774054	 0.001095	 -0.743181
H	 -2.752932	 -0.160639	 -0.912984
H	 -2.076115	 -1.178578	 0.348530
C	 0.285044	 0.587829	 -0.007935
C	 1.498675	 0.408391	 -0.917283
C	 0.029782	 2.078897	 0.234441
C	 0.511727	 -0.147040	 1.317093
H	 1.330643	 0.904885	 -1.866331
H	 1.665752	 -0.644707	 -1.113350
H	 2.392638	 0.822684	 -0.462472
H	 -0.200490	 2.577315	 -0.701285
H	 0.910594	 2.546444	 0.662426
H	 -0.792337	 2.246900	 0.921792
H	 0.620434	 -1.212196	 1.141945
H	 1.415528	 0.213773	 1.797187
H	 -0.306612	 0.002536	 2.013211

2 3 6 7 F

