%nprocshared=1
%mem=2GB
#HF/6-31G* nosymm scf=tight 

Mol

0 1
H	 2.253949	 -1.080892	 1.794605
O	 1.656152	 -1.265405	 1.076705
C	 0.679782	 -0.359119	 1.107994
C	 -0.318135	 -0.576402	 0.000164
O	 0.639890	 0.499317	 1.928050
C	 -1.454360	 0.441875	 -0.000474
H	 0.229729	 -0.556503	 -0.938160
H	 -0.697189	 -1.590027	 0.099598
C	 -2.826123	 -0.230780	 0.000056
H	 -1.357605	 1.085198	 -0.868380
H	 -1.357504	 1.086451	 0.866496
H	 -2.959731	 -0.858053	 -0.876869
H	 -3.619374	 0.509403	 -0.000080
H	 -2.959371	 -0.857318	 0.877556

2 3 4 7 F

1 2 3 5 F

