%nprocshared=1
%mem=2GB
#HF/6-31G* nosymm scf=tight 

Mol

0 1
O	 -1.015189	 -0.918831	 2.122263
C	 -0.451170	 -1.129930	 1.097049
C	 0.801727	 -1.959116	 0.945507
O	 -0.856865	 -0.652552	 -0.071339
C	 1.124911	 -2.785238	 2.184071
H	 1.613075	 -1.280220	 0.700432
H	 0.669725	 -2.590969	 0.072237
H	 1.272053	 -2.149836	 3.048928
H	 2.030738	 -3.360307	 2.024106
H	 0.320287	 -3.472711	 2.414906
C	 -2.031512	 0.152128	 -0.081142
C	 -3.202638	 -0.750458	 0.244609
H	 -2.137810	 0.608842	 -1.055666
H	 -1.922444	 0.944164	 0.647126
H	 -3.294971	 -1.541474	 -0.490868
H	 -4.122778	 -0.175148	 0.247637
H	 -3.078554	 -1.204329	 1.221267

2 4 11 13 F

11 4 2 3 F

