%nprocshared=1
%mem=2GB
#HF/6-31G* nosymm scf=tight 

Mol

0 1
O	 0.391030	 1.298905	 0.000133
C	 0.503002	 0.111612	 0.000005
C	 -0.702327	 -0.811998	 -0.000075
C	 1.863306	 -0.554493	 0.000030
C	 -0.604899	 -1.943077	 1.016448
H	 -1.587919	 -0.205279	 0.179901
H	 -0.820686	 -1.206445	 -1.007630
H	 -0.512012	 -1.553457	 2.022822
H	 -1.490352	 -2.568559	 0.971705
H	 0.262021	 -2.563500	 0.824762
H	 1.974395	 -1.189404	 -0.874166
H	 2.638695	 0.198920	 -0.000196
H	 1.974487	 -1.188655	 0.874727
