%nprocshared=1
%mem=2GB
#HF/6-31G* nosymm scf=tight 

Mol

0 1
H	 -2.698709	 -0.000305	 0.034435
C	 -1.693833	 0.000034	 0.434417
O	 -0.828952	 -0.000968	 -0.659236
H	 -1.574200	 0.882896	 1.055746
H	 -1.574147	 -0.881698	 1.057355
C	 0.559449	 -0.000018	 -0.420814
C	 1.039437	 -1.287038	 0.247098
C	 1.367910	 0.341739	 -1.670835
H	 0.687006	 0.809257	 0.288294
H	 0.412286	 -1.524994	 1.099511
H	 2.059261	 -1.164854	 0.598191
H	 1.028124	 -2.132334	 -0.433718
H	 0.967687	 1.230669	 -2.146314
H	 2.401863	 0.535296	 -1.402614
H	 1.364965	 -0.465920	 -2.395762

6 3 2 1 F

