%nprocshared=1
%mem=2GB
#HF/6-31G* nosymm scf=tight 

Mol

0 1
O	 -0.682937	 1.318834	 -0.186099
C	 -0.860635	 0.152188	 -0.042321
C	 -2.173363	 -0.477127	 0.338347
O	 0.083258	 -0.765189	 -0.202595
H	 -2.477673	 -1.180929	 -0.427595
H	 -2.923125	 0.290956	 0.455536
H	 -2.058825	 -1.029004	 1.264191
C	 1.391937	 -0.334737	 -0.569838
C	 2.013260	 0.536960	 0.505684
H	 1.342674	 0.183835	 -1.515246
H	 1.952083	 -1.249751	 -0.698229
H	 3.034230	 0.785436	 0.232535
H	 1.458592	 1.459448	 0.622852
H	 2.032330	 0.014718	 1.456113

8 4 2 1 F

