%nprocshared=1
%mem=2GB
#HF/6-31G* nosymm scf=tight 

Mol

0 1
H	 -2.698709	 -0.000305	 0.034435
C	 -1.693833	 0.000034	 0.434417
O	 -0.828952	 -0.000968	 -0.659236
H	 -1.574200	 0.882896	 1.055746
H	 -1.574147	 -0.881698	 1.057355
C	 -0.742549	 1.160635	 -1.451522
C	 -1.967154	 1.352812	 -2.343895
C	 -0.421780	 2.407416	 -0.629572
H	 0.106972	 0.958576	 -2.093017
H	 -2.194798	 0.433847	 -2.873263
H	 -1.773678	 2.129306	 -3.077283
H	 -2.845026	 1.649630	 -1.778738
H	 0.419694	 2.218188	 0.028131
H	 -0.160541	 3.229394	 -1.288792
H	 -1.263891	 2.729223	 -0.025312

9 6 3 2 F

