%nprocshared=1
%mem=2GB
#HF/6-31G* nosymm scf=tight 

Mol

0 1
O	 -1.487788	 1.240889	 -0.102860
C	 -1.083277	 0.139568	 0.115197
C	 0.323299	 -0.082943	 0.642902
C	 -1.933017	 -1.084621	 -0.143902
C	 1.355627	 -0.005344	 -0.493127
H	 0.396251	 -1.044647	 1.143147
H	 0.528637	 0.693580	 1.371677
C	 2.789514	 0.066718	 0.028431
H	 1.251497	 -0.870971	 -1.143603
H	 1.137729	 0.868016	 -1.098852
H	 3.498012	 0.126696	 -0.791401
H	 3.038735	 -0.810289	 0.618831
H	 2.933119	 0.941159	 0.655949
H	 -1.393885	 -1.806447	 -0.750509
H	 -2.850323	 -0.799888	 -0.640100
H	 -2.169004	 -1.571158	 0.798858

4 2 3 5 F

