%nprocshared=24
%mem=2GB
#HF/6-31G* nosymm scf=tight 

Mol

0 1
H	 -2.455504	 -1.062989	 3.255514
C	 -2.425350	 -0.963885	 2.187839
C	 -1.271134	 -0.975404	 1.562018
H	 -3.351856	 -0.856911	 1.655811
O	 -0.719992	 -2.123891	 1.088645
H	 -0.705177	 -0.080950	 1.370080
C	 0.576036	 -2.077194	 0.598768
C	 0.661198	 -1.279449	 -0.682889
H	 0.980938	 -3.065013	 0.409128
H	 1.189881	 -1.583371	 1.337563
F	 -0.017665	 -0.149880	 -0.544961
F	 1.910333	 -0.963209	 -0.982026
F	 0.156027	 -1.934121	 -1.707876

11 8 7 9 F

3 5 7 9 F

6 3 5 7 F

