%nprocshared=1
%mem=2GB
#HF/6-31G* nosymm scf=tight 

Mol

0 1
H	 -3.269016	 -0.876744	 0.468090
C	 -2.809304	 0.000122	 0.025886
N	 -1.391456	 0.000019	 0.300661
H	 -3.037557	 -0.000063	 -1.044252
H	 -3.269223	 0.876956	 0.468000
C	 -0.630205	 0.670372	 -0.735153
C	 -0.876352	 -1.334714	 0.535107
H	 -0.733504	 0.165484	 -1.700515
H	 -1.010458	 1.680273	 -0.849478
C	 0.842287	 0.727508	 -0.359557
H	 -1.436152	 -1.787147	 1.347193
H	 -0.995943	 -1.972334	 -0.346169
C	 0.596140	 -1.277578	 0.910703
H	 1.402087	 1.179942	 -1.171643
H	 0.961878	 1.365128	 0.521719
N	 1.357391	 -0.607225	 -0.125112
H	 0.976393	 -2.287479	 1.025027
H	 0.699439	 -0.772690	 1.876065
C	 2.775239	 -0.607328	 0.149662
H	 3.309528	 -0.153374	 -0.677521
H	 3.128842	 -1.626870	 0.256087
H	 3.034166	 -0.061073	 1.061725
