%nprocshared=1
%mem=2GB
#HF/6-31G* nosymm scf=tight 

Mol

0 1
H	 0.258459	 -5.801877	 -0.801278
C	 0.604315	 -4.773510	 -0.825653
C	 -0.571161	 -3.799030	 -0.885721
H	 1.206836	 -4.607407	 0.062945
H	 1.253401	 -4.664210	 -1.689937
C	 -0.127859	 -2.340084	 -0.922563
H	 -1.220417	 -3.941504	 -0.027492
H	 -1.171983	 -4.013803	 -1.767921
N	 -1.268658	 -1.446027	 -0.948991
H	 0.449946	 -2.118368	 -0.029284
H	 0.544527	 -2.182937	 -1.772610
C	 -1.217365	 -0.386708	 0.039277
H	 -1.355622	 -1.044301	 -1.863373
C	 -2.452633	 0.504241	 -0.042481
H	 -1.172857	 -0.848333	 1.022069
H	 -0.315698	 0.227728	 -0.054795
C	 -3.758029	 -0.289423	 -0.010781
H	 -2.394220	 1.093569	 -0.952170
H	 -2.440793	 1.210787	 0.785871
H	 -3.816659	 -0.981993	 -0.845726
H	 -4.617837	 0.370165	 -0.069296
H	 -3.847478	 -0.867502	 0.904682

15 12 14 18 F

