%nprocshared=1
%mem=2GB
#HF/6-31G* nosymm scf=tight 

Mol

0 1
O	 -0.682937	 1.318834	 -0.186099
C	 -0.860635	 0.152188	 -0.042321
C	 -2.173363	 -0.477127	 0.338347
O	 0.083258	 -0.765189	 -0.202595
H	 -2.477673	 -1.180929	 -0.427595
H	 -2.923125	 0.290956	 0.455536
H	 -2.058825	 -1.029004	 1.264191
C	 1.391937	 -0.334737	 -0.569838
C	 1.424388	 1.151992	 -0.871884
H	 1.732103	 -0.914244	 -1.414587
H	 2.005065	 -0.569024	 0.288464
H	 2.444706	 1.463535	 -1.073434
H	 0.820655	 1.382502	 -1.740641
H	 1.055172	 1.721284	 -0.025716

8 4 2 1 F

