%nprocshared=1
%mem=2GB
#HF/6-31G* nosymm scf=tight 

Mol

0 1
O	 0.841550	 1.899867	 -0.435920
C	 0.015968	 1.879419	 -1.290927
C	 -1.254633	 1.065283	 -1.265469
O	 0.109367	 2.589655	 -2.407984
C	 -1.412532	 0.227344	 -0.000452
H	 -2.085007	 1.755619	 -1.386588
H	 -1.257825	 0.440513	 -2.154518
C	 -2.706999	 -0.587347	 -0.000541
H	 -1.388285	 0.879731	 0.866905
H	 -0.559610	 -0.436967	 0.098131
C	 -3.956778	 0.291888	 0.000910
H	 -2.726114	 -1.239230	 -0.871609
H	 -2.725217	 -1.240844	 0.869333
H	 -3.985213	 0.933254	 -0.875158
H	 -4.860123	 -0.309979	 0.000519
H	 -3.984618	 0.931166	 0.878514
C	 1.259672	 3.401517	 -2.559048
H	 1.314176	 4.134475	 -1.767032
H	 1.152164	 3.890767	 -3.514572
H	 2.155479	 2.797470	 -2.546256

1 2 3 6 F

9 5 3 6 F

1 2 4 17 F

