%nprocshared=1
%mem=2GB
#HF/6-31G* nosymm scf=tight 

Mol

0 1
H	 -1.836216	 1.387520	 -0.000064
C	 -1.301823	 0.443321	 -0.000031
O	 -0.003969	 0.658512	 0.000451
O	 -1.829879	 -0.616434	 -0.000857
C	 0.850537	 -0.484732	 0.000380
C	 1.298058	 -0.717104	 1.427282
H	 1.687520	 -0.294274	 -0.657270
H	 0.302273	 -1.330275	 -0.391740
H	 1.838342	 0.142930	 1.806052
H	 1.952888	 -1.581091	 1.471517
H	 0.446491	 -0.898101	 2.073007

5 3 2 4 F

