%nprocshared=1
%mem=2GB
#HF/6-31G* nosymm scf=tight 

Mol

0 1
H	 -2.698709	 -0.000305	 0.034435
C	 -1.693833	 0.000034	 0.434417
O	 -0.828952	 -0.000968	 -0.659236
H	 -1.574200	 0.882896	 1.055746
H	 -1.574147	 -0.881698	 1.057355
C	 0.559449	 -0.000018	 -0.420814
C	 0.938096	 0.792208	 0.828955
C	 1.154072	 -1.406921	 -0.418627
H	 0.956587	 0.526648	 -1.280428
H	 0.458493	 1.765036	 0.817325
H	 2.012595	 0.942625	 0.861545
H	 0.652782	 0.279976	 1.742398
H	 0.823392	 -1.956451	 -1.293342
H	 2.238008	 -1.351689	 -0.440923
H	 0.874542	 -1.969896	 0.466111

6 3 2 1 F

