%nprocshared=1
%mem=2GB
#HF/6-31G* nosymm scf=tight 

Mol

0 1
O	 -1.877399	 -2.121352	 -0.801250
C	 -0.842317	 -1.673250	 -0.425014
C	 0.464178	 -2.427984	 -0.364075
O	 -0.698257	 -0.426125	 0.001050
C	 0.344903	 -3.868700	 -0.844782
H	 0.818834	 -2.381485	 0.661255
H	 1.187917	 -1.873142	 -0.953666
H	 -0.365643	 -4.422679	 -0.243454
H	 1.307353	 -4.365114	 -0.780923
H	 0.007068	 -3.909770	 -1.873132
C	 -1.853104	 0.406779	 0.000512
C	 -3.066105	 -0.499277	 -0.000959
H	 -1.828410	 1.043074	 -0.873618
H	 -1.829857	 1.042383	 0.875188
H	 -3.071820	 -1.133106	 -0.880383
H	 -3.972708	 0.097145	 -0.001528
H	 -3.073405	 -1.133813	 0.877999

4 2 3 6 F

11 4 2 3 F

