%nprocshared=1
%mem=2GB
#HF/6-31G* nosymm scf=tight 

Mol

0 1
O	 1.355117	 -2.747615	 0.408126
C	 0.429579	 -2.027468	 0.218014
C	 -1.012008	 -2.456249	 0.194749
O	 0.550821	 -0.724572	 0.000672
H	 -1.567283	 -1.914564	 0.951670
H	 -1.076612	 -3.518545	 0.377084
H	 -1.449293	 -2.216935	 -0.767588
C	 1.863949	 -0.193559	 -0.000319
H	 2.028859	 0.409284	 -0.881648
H	 2.526261	 -1.045082	 -0.000003
H	 2.029520	 0.410555	 0.880008

8 4 2 1 F

