%nprocshared=1
%mem=2GB
#HF/6-31G* nosymm scf=tight 

Mol

0 1
H	 -2.095764	 0.435638	 -2.350391
C	 -2.795213	 1.048318	 -1.768139
C	 -2.660244	 0.921717	 -0.272021
O	 -3.583432	 1.744001	 -2.321751
C	 -3.409058	 2.029187	 0.482327
H	 -3.005253	 -0.063237	 0.020458
H	 -1.597799	 0.985824	 -0.040169
C	 -2.798747	 3.419646	 0.288825
H	 -4.441119	 2.038043	 0.144606
H	 -3.440030	 1.786253	 1.543356
C	 -3.561737	 4.514746	 1.036767
H	 -2.775987	 3.653618	 -0.773524
H	 -1.761458	 3.416518	 0.618313
C	 -2.958200	 5.906199	 0.828076
H	 -4.598922	 4.506246	 0.711332
H	 -3.572515	 4.283927	 2.101187
C	 -3.639767	 7.024906	 1.624337
H	 -2.982718	 6.154126	 -0.231936
H	 -1.907174	 5.874981	 1.107505
C	 -5.082211	 7.314837	 1.206110
H	 -3.054622	 7.933823	 1.508474
H	 -3.612755	 6.780531	 2.684277
H	 -5.141968	 7.546737	 0.145959
H	 -5.738273	 6.472390	 1.398048
H	 -5.477819	 8.165677	 1.752517

6 3 5 8 F

3 5 8 12 F

12 8 11 14 F

8 11 14 18 F

20 17 14 18 F

