%nprocshared=1
%mem=2GB
#HF/6-31G* nosymm scf=tight 

Mol

0 1
H	 -2.798360	 -0.862255	 -0.071053
N	 -1.863561	 -0.715187	 0.256814
C	 -1.344686	 0.554728	 -0.219830
H	 -1.300452	 -1.461917	 -0.101532
C	 -0.758920	 1.340035	 0.934858
H	 -0.579497	 0.454667	 -0.990852
H	 -2.163618	 1.126152	 -0.645984
O	 -1.796386	 1.665067	 1.815258
H	 -0.003563	 0.746387	 1.449306
H	 -0.285582	 2.244506	 0.559200
C	 -1.410704	 2.465582	 2.886704
H	 -2.287869	 2.647651	 3.492615
H	 -0.656479	 1.974581	 3.499113
H	 -1.012144	 3.419343	 2.547147

8 5 3 6 F

5 8 11 13 F

11 8 5 3 F

