%nprocshared=1
%mem=2GB
#HF/6-31G* nosymm scf=tight 

Mol

0 1
H	 -2.153054	 -2.250733	 0.000000
O	 -2.462445	 -1.355403	 0.000000
C	 -1.434260	 -0.483044	 0.000000
C	 -1.640271	 0.745920	 -0.617993
C	 -0.213670	 -0.768815	 0.581727
H	 -2.596732	 0.945714	 -1.063211
C	 -0.625120	 1.679700	 -0.649902
H	 -0.041261	 -1.715109	 1.062725
C	 0.800992	 0.184203	 0.541166
H	 -0.792253	 2.626726	 -1.129252
C	 0.607403	 1.410881	 -0.071181
C	 2.075099	 -0.122366	 1.152038
H	 1.398867	 2.135190	 -0.094423
N	 3.075417	 -0.365610	 1.632766

14 12 9 5 F

