%nprocshared=1
%mem=2GB
#HF/6-31G* nosymm scf=tight 

Mol

0 1
H	 -0.824610	 -2.511196	 -0.190987
N	 -0.095492	 -1.835008	 -0.311965
C	 -0.563778	 -0.502042	 0.037919
H	 0.175208	 -1.870362	 -1.276448
C	 0.575259	 0.508231	 -0.048326
H	 -0.932543	 -0.538620	 1.058639
H	 -1.396151	 -0.161633	 -0.583388
C	 1.954651	 -0.143624	 0.035137
H	 0.475158	 1.060484	 -0.977307
H	 0.469181	 1.234488	 0.755973
H	 2.103292	 -0.853109	 -0.774172
H	 2.742821	 0.599562	 -0.030094
H	 2.083613	 -0.679371	 0.971560

1 2 3 6 F

