%nprocshared=1
%mem=2GB
#HF/6-31G* nosymm scf=tight 

Mol

0 1
H	 -3.420663	 1.227371	 -1.044276
O	 -3.452007	 0.283848	 -0.965577
C	 -3.181085	 -0.079926	 0.364119
C	 -1.765924	 0.277073	 0.805136
H	 -3.327791	 -1.152017	 0.410903
H	 -3.905698	 0.375695	 1.036898
C	 -0.677594	 -0.417312	 -0.014550
H	 -1.637766	 1.358238	 0.744969
H	 -1.659588	 0.017670	 1.857098
C	 0.738335	 -0.034840	 0.421385
H	 -0.814977	 -0.178223	 -1.064632
H	 -0.802730	 -1.495410	 0.071702
C	 0.780305	 0.591489	 1.817822
H	 1.368629	 -0.920449	 0.392323
H	 1.162011	 0.665134	 -0.297739
C	 0.102467	 1.962185	 1.926839
H	 1.816126	 0.677108	 2.142536
H	 0.299020	 -0.087845	 2.518313
C	 -0.100041	 2.459315	 3.359410
H	 -0.866920	 1.906665	 1.437457
H	 0.681644	 2.695173	 1.368730
H	 -0.666010	 1.740033	 3.945457
H	 -0.648838	 3.396106	 3.368408
H	 0.843216	 2.630865	 3.867348

20 16 13 17 F

17 13 10 7 F

11 7 4 3 F

1 2 3 5 F

7 4 3 2 F

