%nprocshared=1
%mem=2GB
#HF/6-31G* nosymm scf=tight 

Mol

0 1
H	 2.866480	 -0.465706	 0.876907
C	 2.405773	 -0.024801	 0.000000
N	 0.988830	 -0.304158	 0.000000
H	 2.866480	 -0.465706	 -0.876907
H	 2.629928	 1.045948	 0.000000
C	 0.357196	 0.038987	 1.260658
C	 0.695818	 -1.678556	 -0.362134
H	 0.772303	 -0.542217	 2.090349
H	 0.534473	 1.088803	 1.472096
C	 -1.138520	 -0.215757	 1.171614
H	 1.121049	 -1.886404	 -1.338978
H	 1.135600	 -2.384917	 0.349305
C	 -0.808878	 -1.887754	 -0.408144
H	 -1.613066	 -0.050015	 2.129921
H	 -1.581212	 0.461230	 0.443134
O	 -1.399722	 -1.543728	 0.813537
H	 -1.045655	 -2.928010	 -0.589304
H	 -1.236061	 -1.289432	 -1.210949
