%nprocshared=1
%mem=2GB
#HF/6-31G* nosymm scf=tight 

Mol

0 1
O	 2.544561	 1.850230	 -0.436504
C	 1.838777	 1.723109	 -1.389639
C	 0.569680	 0.890692	 -1.352025
C	 2.167518	 2.390316	 -2.709457
C	 0.291004	 0.242674	 0.000989
H	 -0.258633	 1.532446	 -1.649411
H	 0.643551	 0.134968	 -2.132938
C	 -0.994322	 -0.586602	 0.000262
H	 0.231019	 1.016052	 0.760210
H	 1.134073	 -0.383189	 0.276087
C	 -2.259874	 0.272531	 0.000494
H	 -1.004862	 -1.240012	 -0.870939
H	 -1.005220	 -1.241071	 0.870675
C	 -3.326317	 -0.220828	 0.979937
H	 -2.678387	 0.296251	 -1.004147
H	 -1.996523	 1.300303	 0.244067
C	 -4.587525	 0.642310	 0.974250
H	 -3.591244	 -1.247709	 0.736724
H	 -2.909608	 -0.243537	 1.984774
H	 -5.047399	 0.657857	 -0.009835
H	 -5.324561	 0.267291	 1.677699
H	 -4.361146	 1.668885	 1.248185
H	 1.363265	 3.056339	 -3.008133
H	 3.085857	 2.952964	 -2.615040
H	 2.277291	 1.646185	 -3.492945

9 5 8 12 F

15 11 14 18 F

1 2 3 6 F

9 5 3 6 F

