%nprocshared=1
%mem=2GB
#HF/6-31G* nosymm scf=tight 

Mol

0 1
O	 1.712526	 1.529354	 0.440046
C	 1.304218	 0.811881	 1.295403
C	 -0.011336	 0.072666	 1.268093
O	 1.974256	 0.559481	 2.412756
C	 -0.823008	 0.326187	 0.001381
H	 0.207737	 -0.984580	 1.390372
H	 -0.565893	 0.363940	 2.155980
C	 -2.149452	 -0.435131	 -0.000098
H	 -0.233192	 0.041462	 -0.864203
H	 -1.008612	 1.391141	 -0.097284
C	 -3.368779	 0.488503	 -0.000883
H	 -2.193746	 -1.087250	 -0.871175
H	 -2.195311	 -1.087803	 0.870418
C	 -3.346354	 1.505125	 -1.141597
H	 -3.422266	 1.013619	 0.950187
H	 -4.273627	 -0.111280	 -0.069069
H	 -2.469560	 2.143689	 -1.080920
H	 -4.223185	 2.144600	 -1.115337
H	 -3.327221	 1.009791	 -2.108339
C	 3.231980	 1.191941	 2.564681
H	 3.904509	 0.895611	 1.772581
H	 3.612712	 0.866033	 3.520036
H	 3.120896	 2.266661	 2.552689

15 11 8 12 F

1 2 3 6 F

9 5 3 6 F

1 2 4 20 F

