%nprocshared=1
%mem=2GB
#HF/6-31G* nosymm scf=tight 

Mol

0 1
O	 0.675720	 -1.064234	 2.185768
C	 0.067039	 -1.129181	 1.167600
C	 -1.330802	 -1.666362	 1.026018
O	 0.550821	 -0.724572	 0.000672
H	 -1.978185	 -0.899080	 0.617535
H	 -1.695974	 -1.983930	 1.991260
H	 -1.333650	 -2.500848	 0.334495
C	 1.863949	 -0.193559	 -0.000319
H	 2.028859	 0.409284	 -0.881648
H	 2.526261	 -1.045082	 -0.000003
H	 2.029520	 0.410555	 0.880008

8 4 2 1 F

