%nprocshared=1
%mem=2GB
#HF/6-31G* nosymm scf=tight 

Mol

0 1
H	 -1.118610	 1.586003	 0.703815
C	 -0.489937	 0.709459	 0.867300
N	 0.538815	 0.649616	 0.000000
O	 -0.723368	 -0.084068	 1.730454
C	 1.521968	 -0.411503	 0.000000
H	 0.619850	 1.377015	 -0.672761
H	 2.150599	 -0.357004	 -0.881901
H	 0.999455	 -1.354525	 0.000000
H	 2.150599	 -0.357004	 0.881901

1 2 3 6 F

