%nprocshared=1
%mem=2GB
#HF/6-31G* nosymm scf=tight 

Mol

0 1
O	 -0.644987	 -1.652990	 1.664992
C	 -1.514987	 -1.440192	 0.882411
C	 -2.775474	 -2.260464	 0.784449
O	 -1.481751	 -0.454642	 0.000584
H	 -3.283566	 -2.233162	 1.740984
H	 -3.433286	 -1.897333	 0.008654
H	 -2.505502	 -3.290827	 0.586090
C	 -0.334255	 0.388708	 0.000906
C	 0.891947	 -0.504646	 0.000751
H	 -0.365390	 1.025305	 -0.873475
H	 -0.365484	 1.024911	 0.875569
C	 0.838286	 -1.556101	 -1.109219
H	 0.972990	 -0.989855	 0.969484
H	 1.777328	 0.114301	 -0.115286
C	 0.206104	 -1.029436	 -2.398907
H	 1.844968	 -1.910910	 -1.323199
H	 0.276656	 -2.422065	 -0.763155
C	 0.153752	 -2.079271	 -3.507947
H	 0.766325	 -0.164258	 -2.746318
H	 -0.800780	 -0.676580	 -2.187368
H	 1.149879	 -2.427532	 -3.765745
H	 -0.298951	 -1.676442	 -4.408516
H	 -0.429266	 -2.943532	 -3.202739

13 9 8 10 F

2 4 8 10 F

19 15 12 16 F

1 2 4 8 F

