%nprocshared=1
%mem=2GB
#HF/6-31G* nosymm scf=tight 

Mol

0 1
H	 -1.836216	 1.387520	 -0.000064
C	 -1.301823	 0.443321	 -0.000031
O	 -0.003969	 0.658512	 0.000451
O	 -1.829879	 -0.616434	 -0.000857
C	 0.642855	 0.764993	 1.268310
C	 0.170253	 2.050267	 1.912545
H	 1.713257	 0.762386	 1.114847
H	 0.387916	 -0.100704	 1.864020
H	 0.427051	 2.905718	 1.298304
H	 0.640780	 2.170258	 2.882823
H	 -0.904705	 2.038608	 2.051171

7 5 3 2 F

