%nprocshared=1
%mem=2GB
#HF/6-31G* nosymm scf=tight 

Mol

0 1
H	 0.985436	 2.697947	 -2.396742
O	 1.665008	 2.390388	 -1.812542
C	 1.184713	 1.481717	 -0.940297
C	 2.079555	 0.944537	 -0.020167
C	 -0.137143	 1.080703	 -0.936207
H	 3.101708	 1.272424	 -0.043638
C	 1.648489	 0.010012	 0.898478
H	 -0.848063	 1.477977	 -1.633554
C	 -0.536158	 0.140425	 0.000000
H	 2.346075	 -0.399521	 1.605240
C	 0.325062	 -0.409263	 0.922870
N	 -1.935604	 -0.280333	 0.000000
H	 -0.024229	 -1.133320	 1.629370
O	 -2.161694	 -1.452901	 0.000000
O	 -2.770341	 0.571417	 0.000000

4 3 2 1 F

