%nprocshared=1
%mem=2GB
#HF/6-31G* nosymm scf=tight 

Mol

0 1
H	 -2.798360	 -0.862255	 -0.071053
N	 -1.863561	 -0.715187	 0.256814
C	 -1.344686	 0.554728	 -0.219830
H	 -1.300452	 -1.461917	 -0.101532
C	 -1.970319	 0.900547	 -1.554794
H	 -1.517707	 1.384941	 0.466328
H	 -0.271395	 0.462226	 -0.354995
O	 -1.555371	 -0.050491	 -2.493108
H	 -3.057074	 0.896946	 -1.473615
H	 -1.653536	 1.895276	 -1.860404
C	 -1.991190	 0.196049	 -3.791896
H	 -1.613247	 -0.598287	 -4.421092
H	 -3.078059	 0.204857	 -3.852068
H	 -1.617326	 1.148170	 -4.162705

8 5 3 6 F

5 8 11 13 F

11 8 5 3 F

