%nprocshared=1
%mem=2GB
#HF/6-31G* nosymm scf=tight 

Mol

0 1
O	 -1.487788	 1.240889	 -0.102860
C	 -1.083277	 0.139568	 0.115197
C	 0.323299	 -0.082943	 0.642902
C	 -1.933017	 -1.084621	 -0.143902
C	 1.355627	 -0.005344	 -0.493127
H	 0.396251	 -1.044647	 1.143147
H	 0.528637	 0.693580	 1.371677
C	 1.848830	 1.420142	 -0.733935
H	 2.203759	 -0.646401	 -0.262928
H	 0.903920	 -0.398546	 -1.397833
H	 2.571098	 1.449252	 -1.543362
H	 2.327255	 1.826715	 0.152423
H	 1.026661	 2.078110	 -0.998819
H	 -1.393885	 -1.806447	 -0.750509
H	 -2.850323	 -0.799888	 -0.640100
H	 -2.169004	 -1.571158	 0.798858

4 2 3 5 F

