%nprocshared=1
%mem=2GB
#HF/6-31G* nosymm scf=tight 

Mol

0 1
H	 -3.042581	 -0.665861	 0.004336
O	 -2.245037	 -1.176175	 0.000806
C	 -1.162163	 -0.365336	 0.001020
C	 -1.172536	 0.888093	 0.585945
C	 -0.014151	 -0.840217	 -0.621385
H	 -2.062426	 1.258599	 1.066355
C	 -0.021475	 1.662061	 0.541889
H	 -0.042108	 -1.817572	 -1.067604
C	 1.133579	 -0.068178	 -0.663642
H	 -0.026743	 2.638232	 0.993666
C	 1.122145	 1.196347	 -0.074730
C	 2.389756	 -0.593065	 -1.319090
H	 2.005825	 1.809249	 -0.102803
H	 2.863231	 0.171627	 -1.925603
H	 2.178071	 -1.444030	 -1.955416
H	 3.110996	 -0.909683	 -0.570817
