%nprocshared=1
%mem=2GB
#HF/6-31G* nosymm scf=tight 

Mol

0 1
H	 1.831338	 -0.696335	 -1.142672
O	 1.014532	 -0.685367	 -0.664942
C	 0.702312	 0.627605	 -0.264544
C	 -0.714990	 0.596302	 0.266387
H	 0.758565	 1.310418	 -1.108023
H	 1.386206	 0.972756	 0.507910
O	 -1.405996	 -0.526611	 -0.195820
H	 -1.257453	 1.468809	 -0.075599
H	 -0.688972	 0.618407	 1.353696
H	 -0.890587	 -1.292708	 0.022039

10 7 4 3 F

