%nprocshared=1
%mem=2GB
#HF/6-31G* nosymm scf=tight 

Mol

0 1
H	 -2.095764	 0.435638	 -2.350391
C	 -2.795213	 1.048318	 -1.768139
C	 -2.660244	 0.921717	 -0.272021
O	 -3.583432	 1.744001	 -2.321751
C	 -1.601943	 1.871552	 0.305964
H	 -3.633310	 1.089927	 0.174697
H	 -2.370259	 -0.107296	 -0.062983
C	 -0.171793	 1.517086	 -0.109153
H	 -1.832122	 2.881732	 -0.019366
H	 -1.677795	 1.878891	 1.392219
C	 0.870939	 2.478521	 0.464579
H	 -0.106331	 1.516191	 -1.195229
H	 0.063606	 0.502634	 0.207097
C	 2.298462	 2.130604	 0.034369
H	 0.624899	 3.490862	 0.154156
H	 0.811022	 2.468237	 1.552094
C	 3.386342	 3.017122	 0.651356
H	 2.369318	 2.178759	 -1.051151
H	 2.501242	 1.096632	 0.305468
C	 3.342578	 4.479836	 0.206190
H	 4.356429	 2.602482	 0.388768
H	 3.319374	 2.967150	 1.736224
H	 3.391496	 4.559773	 -0.876623
H	 2.436136	 4.977625	 0.534126
H	 4.182861	 5.032196	 0.615847

6 3 5 8 F

3 5 8 12 F

12 8 11 14 F

8 11 14 18 F

20 17 14 18 F

