%nprocshared=1
%mem=2GB
#HF/6-31G* nosymm scf=tight 

Mol

0 1
O	 -0.389695	 0.092980	 2.453461
C	 -0.833093	 0.610524	 1.479901
C	 -1.689737	 1.847648	 1.474314
O	 -0.632575	 0.154573	 0.251549
H	 -2.647636	 1.627754	 1.017121
H	 -1.833848	 2.193421	 2.486988
H	 -1.213112	 2.620317	 0.882227
C	 0.160891	 -1.019931	 0.106212
C	 1.589627	 -0.672828	 0.480843
H	 0.089836	 -1.367806	 -0.916050
H	 -0.238459	 -1.792301	 0.749618
C	 2.366621	 0.040322	 -0.627353
H	 2.093933	 -1.601225	 0.741010
H	 1.578313	 -0.060565	 1.378765
C	 1.584741	 1.203498	 -1.236191
H	 3.308086	 0.408747	 -0.224852
H	 2.620447	 -0.673446	 -1.404184
H	 2.155992	 1.691756	 -2.019332
H	 1.344489	 1.952086	 -0.486409
H	 0.650525	 0.861825	 -1.672744

16 12 9 8 F

2 4 8 10 F

1 2 4 8 F

