%nprocshared=1
%mem=2GB
#HF/6-31G* nosymm scf=tight 

Mol

0 1
H	 -3.704822	 -2.689652	 0.240597
C	 -2.663355	 -2.452988	 0.367561
C	 -1.956226	 -2.993738	 1.430907
C	 -2.032583	 -1.608456	 -0.532342
H	 -2.446620	 -3.648569	 2.128099
C	 -0.617135	 -2.688970	 1.593499
H	 -2.582353	 -1.190222	 -1.356017
C	 -0.692211	 -1.301978	 -0.371570
H	 -0.054258	 -3.098227	 2.410414
C	 0.019283	 -1.842321	 0.693122
H	 -0.200077	 -0.648900	 -1.065554
C	 1.463013	 -1.545621	 0.912827
O	 1.970282	 -0.730723	 0.000018
O	 2.104308	 -1.989907	 1.812943
C	 3.377318	 -0.566646	 -0.000065
H	 3.695437	 -0.028981	 -0.881264
H	 3.789299	 -1.563704	 0.000236
H	 3.695516	 -0.028316	 0.880770

12 13 15 16 F

13 12 10 6 F

