%nprocshared=1
%mem=2GB
#HF/6-31G* nosymm scf=tight 
prop=(read,field)

Mol

0 1
H	 2.756951	 0.103649	 0.000000
N	 1.779284	 0.317023	 0.000000
C	 1.146813	 -0.200780	 1.199405
C	 1.146813	 -0.200780	 -1.199405
H	 1.637779	 0.224996	 2.067988
H	 1.216394	 -1.288678	 1.272049
C	 -0.322140	 0.194956	 1.198662
H	 1.637779	 0.224996	 -2.067988
H	 1.216394	 -1.288678	 -1.272049
C	 -0.322140	 0.194956	 -1.198662
H	 -0.398526	 1.283448	 1.278968
H	 -0.814702	 -0.235867	 2.064295
N	 -0.975941	 -0.298719	 0.000000
H	 -0.814702	 -0.235867	 -2.064295
H	 -0.398526	 1.283448	 -1.278968
C	 -2.393809	 -0.024973	 0.000000
H	 -2.853978	 -0.467190	 -0.876721
H	 -2.853978	 -0.467190	 0.876721
H	 -2.623227	 1.044946	 -0.000000

@grid.dat /N
