%nprocshared=1
%mem=2GB
#HF/6-31G* nosymm scf=tight 

Mol

0 1
H	 -2.577606	 0.247184	 1.509904
O	 -1.840915	 -0.185680	 1.103718
C	 -2.061112	 -1.573124	 1.079922
C	 -2.980254	 -2.016555	 -0.052894
H	 -1.084840	 -2.023973	 0.956217
H	 -2.454997	 -1.912911	 2.037095
C	 -2.620210	 -1.420550	 -1.415985
H	 -2.956784	 -3.101636	 -0.111319
H	 -3.999225	 -1.734794	 0.207254
C	 -2.866600	 0.089203	 -1.484943
H	 -3.200349	 -1.918484	 -2.187908
H	 -1.571054	 -1.621493	 -1.633317
C	 -2.330176	 0.884471	 -0.289058
H	 -2.431345	 0.481425	 -2.402309
H	 -3.938134	 0.261889	 -1.560406
C	 -3.035409	 0.603076	 1.040581
H	 -1.272116	 0.657952	 -0.174973
H	 -2.388577	 1.949153	 -0.510143
C	 -4.479772	 1.107571	 1.067727
H	 -2.476889	 1.071981	 1.849466
H	 -3.032512	 -0.464445	 1.247205
C	 -5.279640	 0.697840	 -0.168394
H	 -4.975954	 0.730625	 1.959468
H	 -4.480473	 2.192172	 1.154477
H	 -5.325177	 -0.383252	 -0.265296
H	 -6.298878	 1.068381	 -0.118510
H	 -4.829169	 1.091077	 -1.075480

14 10 7 4 F

14 10 13 16 F

10 7 4 8 F

8 4 3 2 F

10 13 16 20 F

20 16 19 22 F

