%nprocshared=1
%mem=2GB
#HF/6-31G* nosymm scf=tight 

Mol

0 1
H	 -2.464314	 0.808013	 0.961857
O	 -1.610464	 0.451210	 1.158589
C	 -0.908711	 1.335864	 1.994642
C	 -1.436405	 1.357426	 3.424957
H	 0.118272	 0.993887	 1.989070
H	 -0.916513	 2.341979	 1.576969
C	 -1.650984	 -0.032015	 4.030167
H	 -0.739941	 1.920258	 4.041014
H	 -2.378134	 1.903761	 3.430699
C	 -2.797944	 -0.796715	 3.363432
H	 -1.851620	 0.068629	 5.093173
H	 -0.733169	 -0.612891	 3.937760
C	 -2.781867	 -0.773794	 1.830605
H	 -2.787804	 -1.829197	 3.707997
H	 -3.740409	 -0.373195	 3.704153
C	 -3.034785	 0.600176	 1.203932
H	 -1.812581	 -1.135363	 1.493605
H	 -3.516478	 -1.483350	 1.452831
C	 -4.465221	 1.099239	 1.418936
H	 -2.829381	 0.550761	 0.135533
H	 -2.342479	 1.331646	 1.613770
C	 -5.411106	 0.710962	 0.283063
H	 -4.847259	 0.703375	 2.357459
H	 -4.456195	 2.181939	 1.526468
H	 -5.467273	 -0.368187	 0.171231
H	 -6.416738	 1.077069	 0.465559
H	 -5.076338	 1.123259	 -0.664726

14 10 7 4 F

14 10 13 16 F

10 7 4 8 F

8 4 3 2 F

10 13 16 20 F

4 3 2 1 F

