%nprocshared=1
%mem=2GB
#HF/6-31G* nosymm scf=tight 

Mol

0 1
H	 -0.367348	 2.047014	 -0.308205
C	 0.352277	 1.337084	 0.083769
N	 -0.000016	 0.000074	 -0.335546
H	 1.328359	 1.600444	 -0.307950
H	 0.381933	 1.450534	 1.172486
C	 -0.465943	 -0.031666	 -1.703089
C	 1.075811	 -0.937889	 -0.109761
H	 -0.787390	 -1.034969	 -1.958834
H	 -1.316688	 0.630648	 -1.817267
H	 0.300131	 0.273014	 -2.423633
H	 1.350422	 -0.937252	 0.939030
H	 0.751237	 -1.939318	 -0.369048
H	 1.972692	 -0.709829	 -0.695014
