%nprocshared=1
%mem=2GB
#HF/6-31G* nosymm scf=tight 

Mol

0 1
O	 2.595727	 1.589195	 -0.671994
C	 1.839027	 1.499694	 -1.589683
C	 0.530338	 0.736788	 -1.488462
C	 2.139156	 2.147500	 -2.925882
C	 0.282774	 0.105467	 -0.121575
H	 -0.275673	 1.422011	 -1.747699
H	 0.525794	 -0.022258	 -2.269635
C	 -1.043781	 -0.653451	 -0.057879
H	 0.301070	 0.881382	 0.637208
H	 1.103282	 -0.564695	 0.114641
C	 -2.259874	 0.272531	 0.000494
H	 -1.131370	 -1.305839	 -0.925499
H	 -1.047865	 -1.305893	 0.814112
C	 -2.299309	 1.292585	 -1.138781
H	 -2.265874	 0.798307	 0.953669
H	 -3.168817	 -0.326069	 -0.021815
C	 -3.566352	 2.147124	 -1.131721
H	 -1.427462	 1.940154	 -1.072741
H	 -2.220829	 0.772174	 -2.091079
H	 -3.656394	 2.706940	 -0.205088
H	 -3.564796	 2.860504	 -1.950126
H	 -4.455333	 1.530813	 -1.231810
H	 1.358383	 2.855662	 -3.187641
H	 3.089874	 2.659975	 -2.877508
H	 2.170920	 1.398098	 -3.711389

9 5 8 12 F

15 11 8 12 F

1 2 3 6 F

9 5 3 6 F

