%nprocshared=1
%mem=2GB
#HF/6-31G* nosymm scf=tight 

Mol

0 1
H	 -3.180865	 1.828416	 -0.002432
O	 -2.472201	 2.300741	 0.412968
C	 -1.278381	 2.010281	 -0.253658
C	 -0.795902	 0.595680	 -0.067389
H	 -0.539100	 2.701322	 0.135096
H	 -1.369346	 2.219200	 -1.319070
C	 -1.522220	 -0.487727	 -0.255690
H	 0.231515	 0.503256	 0.249398
H	 -1.071454	 -1.449856	 -0.418625
H	 -2.596511	 -0.445958	 -0.267127

5 3 2 1 F

5 3 4 7 F

