%nprocshared=1
%mem=2GB
#HF/6-31G* nosymm scf=tight 

Mol

0 1
H	 -0.093325	 -3.579059	 1.220364
O	 -0.206467	 -2.806660	 0.685103
C	 -0.958468	 -1.851049	 1.387877
C	 -1.119381	 -0.628640	 0.501553
H	 -1.936305	 -2.251623	 1.651850
H	 -0.457734	 -1.575848	 2.315170
C	 0.198102	 0.111031	 0.262842
H	 -1.843560	 0.036262	 0.964367
H	 -1.547877	 -0.946599	 -0.444899
C	 1.331804	 -0.827780	 -0.158768
H	 0.047098	 0.873753	 -0.497175
H	 0.489844	 0.636478	 1.171309
C	 2.723619	 -0.410569	 0.329459
H	 1.342964	 -0.912588	 -1.244120
H	 1.116806	 -1.824343	 0.220779
C	 3.243875	 0.895854	 -0.272975
H	 3.424222	 -1.207124	 0.091250
H	 2.714788	 -0.329854	 1.414619
H	 3.251977	 0.848779	 -1.358681
H	 2.637085	 1.747371	 0.016682
H	 4.259473	 1.094070	 0.055697

2 3 4 8 F

8 4 7 10 F

16 13 10 14 F

1 2 3 5 F

