%nprocshared=1
%mem=2GB
#HF/6-31G* nosymm scf=tight 

Mol

0 1
H	 1.148083	 -1.049780	 0.784252
O	 1.319262	 -0.618148	 -0.041729
C	 0.709265	 0.639550	 -0.033818
C	 1.495235	 1.702151	 0.688476
H	 -0.252138	 0.506309	 0.449043
H	 0.503171	 0.976094	 -1.049342
C	 2.579143	 1.491015	 1.407732
H	 1.106111	 2.703598	 0.587629
H	 2.984040	 0.504753	 1.544751
H	 3.091944	 2.299390	 1.897163

5 3 4 7 F

3 4 7 9 F

