%nprocshared=1
%mem=2GB
#HF/6-31G* nosymm scf=tight 

Mol

0 1
O	 -0.953325	 -1.420362	 -0.415468
C	 -0.666279	 -0.263873	 -0.257859
C	 -1.751795	 0.796185	 -0.253586
N	 0.623947	 0.147590	 -0.102813
H	 -1.595133	 1.528681	 -1.037798
H	 -2.692958	 0.294728	 -0.420321
H	 -1.792510	 1.321619	 0.694487
C	 1.665360	 -0.855771	 0.000151
C	 1.005004	 1.480292	 0.310644
H	 2.465253	 -0.618490	 -0.692587
H	 1.257730	 -1.821716	 -0.242189
H	 2.081488	 -0.891645	 1.004627
H	 1.956671	 1.733024	 -0.141567
H	 0.285583	 2.216604	 -0.010622
H	 1.116870	 1.554166	 1.390848

8 4 2 3 F

