%nprocshared=1
%mem=2GB
#HF/6-31G* nosymm scf=tight 

Mol

0 1
H	 -2.798360	 -0.862255	 -0.071053
N	 -1.863561	 -0.715187	 0.256814
C	 -1.344686	 0.554728	 -0.219830
H	 -1.300452	 -1.461917	 -0.101532
C	 -0.106133	 0.324519	 -1.060142
H	 -2.060336	 1.126924	 -0.811810
H	 -1.072176	 1.162075	 0.637870
O	 0.892367	 -0.202803	 -0.234299
H	 -0.325307	 -0.368730	 -1.871935
H	 0.221675	 1.266575	 -1.494085
C	 2.120842	 -0.384781	 -0.863031
H	 2.805595	 -0.794262	 -0.132868
H	 2.041635	 -1.078551	 -1.698130
H	 2.521266	 0.556681	 -1.233326

8 5 3 6 F

5 8 11 13 F

11 8 5 3 F

