%nprocshared=1
%mem=2GB
#HF/6-31G* nosymm scf=tight 

Mol

0 1
H	 -0.944757	 -0.000069	 1.678017
O	 -0.042387	 -0.000390	 1.388199
C	 -0.001487	 0.000018	 -0.026623
C	 0.013961	 1.441853	 -0.538007
C	 1.237673	 -0.760175	 -0.503313
C	 -1.275582	 -0.714883	 -0.462537
H	 0.003094	 1.477527	 -1.622677
H	 0.906956	 1.962270	 -0.199434
H	 -0.850249	 1.981132	 -0.166071
H	 1.277833	 -0.812411	 -1.586710
H	 2.146577	 -0.269636	 -0.162437
H	 1.233022	 -1.770251	 -0.108851
H	 -1.341098	 -0.767720	 -1.544508
H	 -2.146815	 -0.189134	 -0.088333
H	 -1.293855	 -1.723390	 -0.065080
