%nprocshared=24
%mem=2GB
#HF/6-31G* nosymm scf=tight 

Mol

0 1
H	 -2.238182	 -2.376621	 2.860307
C	 -2.310805	 -1.696434	 2.033960
C	 -1.224516	 -1.150904	 1.538115
H	 -3.283261	 -1.478620	 1.632155
O	 -0.058873	 -1.105489	 2.235090
H	 -1.186540	 -0.727570	 0.550403
C	 1.122280	 -0.938099	 1.529193
C	 1.575007	 -2.228300	 0.883472
H	 1.928985	 -0.573371	 2.155427
H	 0.937284	 -0.221590	 0.743120
F	 0.516023	 -2.913006	 0.476399
F	 2.338925	 -2.006426	 -0.172989
F	 2.253173	 -2.987911	 1.717973

11 8 7 9 F

3 5 7 9 F

6 3 2 1 F

