%nprocshared=1
%mem=2GB
#HF/6-31G* nosymm scf=tight 

Mol

0 1
H	 -3.489899	 1.228218	 -1.029938
O	 -3.452007	 0.283848	 -0.965577
C	 -3.181085	 -0.079926	 0.364119
C	 -1.765924	 0.277073	 0.805136
H	 -3.327791	 -1.152017	 0.410903
H	 -3.905698	 0.375695	 1.036898
C	 -0.863971	 0.728738	 -0.344210
H	 -1.817212	 1.060597	 1.561722
H	 -1.331586	 -0.591315	 1.297553
C	 -0.545529	 -0.393649	 -1.334171
H	 0.058547	 1.130697	 0.063343
H	 -1.347111	 1.549171	 -0.872281
C	 -1.789910	 -1.173329	 -1.767416
H	 -0.052088	 0.032051	 -2.204639
H	 0.169178	 -1.081558	 -0.884084
C	 -2.451003	 -1.995952	 -0.655479
H	 -1.531471	 -1.831990	 -2.595106
H	 -2.522479	 -0.470065	 -2.158029
C	 -3.833719	 -2.547131	 -1.008612
H	 -2.541489	 -1.369542	 0.228666
H	 -1.794593	 -2.818284	 -0.377811
H	 -4.508717	 -1.747749	 -1.302728
H	 -4.275604	 -3.054501	 -0.156467
H	 -3.790602	 -3.260795	 -1.824693

20 16 13 17 F

17 13 10 7 F

13 10 7 11 F

11 7 4 3 F

1 2 3 5 F

