%nprocshared=1
%mem=2GB
#HF/6-31G* nosymm scf=tight 

Mol

0 1
H	 0.856514	 1.206293	 1.111935
C	 0.283171	 0.288180	 1.187354
N	 -0.528168	 0.128977	 -0.000000
H	 -0.357249	 0.369554	 2.058145
H	 0.987652	 -0.530922	 1.354816
C	 0.248044	 -0.037491	 -1.209632
H	 -1.146602	 -0.649094	 0.114777
H	 0.998722	 0.743888	 -1.266824
H	 -0.398417	 0.061950	 -2.074060
H	 0.763621	 -0.999315	 -1.275517
