%nprocshared=1
%mem=2GB
#HF/6-31G* nosymm scf=tight 

Mol

0 1
H	 2.838767	 -0.639526	 1.843161
C	 2.165567	 -0.766307	 0.999974
C	 0.956686	 0.153162	 1.142466
H	 1.844520	 -1.801499	 0.967253
H	 2.731387	 -0.564528	 0.096831
N	 -0.000257	 -0.000071	 0.054619
H	 0.458297	 -0.089793	 2.072498
H	 1.284352	 1.192645	 1.236261
C	 -1.363055	 0.315058	 0.462241
C	 0.402491	 0.717873	 -1.147466
C	 -2.412078	 -0.285320	 -0.468531
H	 -1.482241	 1.391144	 0.451970
H	 -1.549931	 -0.001174	 1.492681
C	 -0.125146	 0.073432	 -2.425564
H	 1.484048	 0.722228	 -1.196137
H	 0.096483	 1.767185	 -1.101728
H	 -2.262839	 0.075384	 -1.480151
H	 -2.369300	 -1.368867	 -0.491760
H	 -3.410332	 -0.003975	 -0.144961
H	 0.227594	 -0.949118	 -2.500397
H	 -1.209144	 0.054909	 -2.459569
H	 0.220286	 0.622911	 -3.296813
