%nprocshared=1
%mem=2GB
#HF/6-31G* nosymm scf=tight 

Mol

0 1
H	 -0.003147	 2.090172	 0.438658
C	 0.023350	 1.111887	 0.907272
N	 -0.528168	 0.128977	 -0.000000
H	 -0.582241	 1.159447	 1.805065
H	 1.057271	 0.911808	 1.200944
C	 0.248044	 -0.037491	 -1.209632
H	 -0.617748	 -0.750718	 0.468124
H	 0.998722	 0.743888	 -1.266824
H	 -0.398417	 0.061950	 -2.074060
H	 0.763621	 -0.999315	 -1.275517
