%nprocshared=1
%mem=2GB
#HF/6-31G* nosymm scf=tight 

Mol

0 1
H	 -1.836216	 1.387520	 -0.000064
C	 -1.301823	 0.443321	 -0.000031
O	 -0.003969	 0.658512	 0.000451
O	 -1.829879	 -0.616434	 -0.000857
C	 0.850537	 -0.484732	 0.000380
C	 2.110825	 -0.109567	 0.749543
H	 1.059549	 -0.763621	 -1.023267
H	 0.332198	 -1.307962	 0.472516
H	 2.612339	 0.721542	 0.267077
H	 2.790756	 -0.954792	 0.772403
H	 1.881632	 0.174599	 1.770135

5 3 2 4 F

