%nprocshared=1
%mem=2GB
#HF/6-31G* nosymm scf=tight 

Mol

0 1
H	 -2.646374	 -0.642757	 1.268656
C	 -2.083525	 -0.384536	 0.393091
O	 -0.807605	 -0.127164	 0.768327
F	 -2.118945	 -1.383102	 -0.486752
F	 -2.621877	 0.670592	 -0.209486
C	 0.084052	 0.273579	 -0.209957
C	 -0.515479	 -0.130572	 -1.550622
Cl	 1.663716	 -0.492839	 0.023454
H	 0.235561	 1.338849	 -0.214480
F	 -0.521346	 -1.440763	 -1.675144
F	 0.229535	 0.368958	 -2.516470
F	 -1.739844	 0.313157	 -1.698969

10 7 6 9 F

6 3 2 4 F

