%nprocshared=1
%mem=2GB
#HF/6-31G* nosymm scf=tight 

Mol

0 1
H	 -0.828330	 -4.079112	 -0.915784
O	 -1.347147	 -3.663038	 -1.589652
C	 -2.044060	 -2.574941	 -1.044358
C	 -1.132728	 -1.706150	 -0.195626
H	 -2.510844	 -1.969808	 -1.816553
H	 -2.830987	 -2.983884	 -0.426328
O	 -0.043959	 -1.331029	 -0.978982
H	 -0.799465	 -2.260353	 0.684019
H	 -1.682402	 -0.835395	 0.156834
C	 -0.381609	 -0.813417	 -2.226865
H	 0.366496	 -0.106062	 -2.579876
H	 -0.435693	 -1.641239	 -2.920182
H	 -1.346371	 -0.311084	 -2.200645

8 4 3 5 F

1 2 3 5 F

10 7 4 8 F

