%nprocshared=1
%mem=2GB
#HF/6-31G* nosymm scf=tight 

Mol

0 1
O	 1.193023	 1.330472	 -0.955394
C	 0.140502	 1.681556	 -1.381988
C	 -1.132561	 0.871331	 -1.354793
O	 -0.054281	 2.863688	 -1.952602
C	 -1.412532	 0.227344	 -0.000452
H	 -1.943418	 1.530676	 -1.652331
H	 -1.057793	 0.122680	 -2.138812
C	 -0.939365	 -1.225814	 0.061276
H	 -2.477005	 0.276943	 0.206773
H	 -0.926472	 0.806065	 0.778862
C	 -1.838149	 -2.172576	 -0.732974
H	 0.078562	 -1.292999	 -0.317390
H	 -0.900453	 -1.551621	 1.098776
H	 -1.870534	 -1.893499	 -1.782127
H	 -1.480654	 -3.195749	 -0.673053
H	 -2.856377	 -2.154432	 -0.355453
C	 1.065166	 3.726192	 -2.042424
H	 1.444631	 3.960080	 -1.058153
H	 0.709774	 4.621320	 -2.528624
H	 1.850932	 3.269393	 -2.626729

9 5 8 12 F

1 2 3 6 F

1 2 4 17 F

