%nprocshared=1
%mem=2GB
#HF/6-31G* nosymm scf=tight 

Mol

0 1
H	 1.585952	 -4.568302	 3.399427
C	 1.641209	 -3.748105	 2.707115
C	 0.668518	 -3.585831	 1.726420
C	 2.677555	 -2.840066	 2.777133
H	 -0.146648	 -4.284042	 1.656888
C	 0.736054	 -2.535355	 0.836961
H	 3.438900	 -2.949709	 3.529076
C	 2.760232	 -1.774514	 1.887064
H	 -0.008383	 -2.398316	 0.074814
C	 1.785506	 -1.622119	 0.913532
H	 3.578277	 -1.085271	 1.967154
O	 1.765256	 -0.628444	 0.000000
C	 2.219300	 -0.871336	 -1.299969
H	 1.984512	 -0.045609	 -1.963582
H	 1.702677	 -1.756392	 -1.639952
H	 3.288645	 -1.054218	 -1.319631

10 12 13 14 F

