%nprocshared=1
%mem=2GB
#HF/6-31G* nosymm scf=tight 

Mol

0 1
H	 2.817334	 -0.814023	 2.890092
O	 2.014182	 -0.893155	 2.395533
C	 1.231231	 0.258349	 2.578886
C	 -0.045548	 0.097161	 1.772908
H	 0.992260	 0.395335	 3.632658
H	 1.770860	 1.145098	 2.249013
C	 0.198102	 0.111031	 0.262842
H	 -0.727637	 0.896526	 2.049492
H	 -0.520612	 -0.834452	 2.067678
C	 1.331804	 -0.827780	 -0.158768
H	 -0.720372	 -0.164095	 -0.249880
H	 0.436822	 1.124355	 -0.057635
C	 2.723619	 -0.410569	 0.329459
H	 1.342964	 -0.912588	 -1.244120
H	 1.116806	 -1.824343	 0.220779
C	 3.088040	 -0.921779	 1.724520
H	 2.775428	 0.675432	 0.332079
H	 3.471474	 -0.747444	 -0.385658
H	 2.350167	 -0.610451	 2.459134
H	 3.151123	 -2.004424	 1.757356
H	 4.050924	 -0.530767	 2.038712

2 3 4 8 F

8 4 7 10 F

4 7 10 14 F

1 2 3 5 F

