%nprocshared=1
%mem=2GB
#HF/6-31G* nosymm scf=tight 

Mol

0 1
H	 -2.362110	 1.080613	 1.105192
C	 -2.490334	 0.184938	 0.509650
C	 -1.232239	 -0.674817	 0.537552
H	 -2.726295	 0.495439	 -0.500892
H	 -3.335399	 -0.370042	 0.903525
C	 -0.000005	 0.033229	 -0.000001
H	 -1.374301	 -1.585563	 -0.041030
H	 -1.013318	 -1.005596	 1.550989
C	 1.290528	 -0.768786	 0.000276
O	 -0.043402	 1.156260	 -0.400129
C	 2.545731	 0.095645	 -0.000061
H	 1.275672	 -1.427874	 -0.865626
H	 1.275566	 -1.427086	 0.866768
H	 2.577157	 0.734767	 -0.874036
H	 3.433520	 -0.528139	 0.000137
H	 2.577172	 0.735117	 0.873581
