%nprocshared=1
%mem=2GB
#HF/6-31G* nosymm scf=tight 

Mol

0 1
H	 -2.577606	 0.247184	 1.509904
O	 -1.840915	 -0.185680	 1.103718
C	 -2.061112	 -1.573124	 1.079922
C	 -2.550471	 -2.081009	 -0.271857
H	 -1.107329	 -2.026596	 1.317273
H	 -2.760092	 -1.861524	 1.864162
C	 -1.742435	 -1.559062	 -1.462452
H	 -2.525071	 -3.167572	 -0.261760
H	 -3.593060	 -1.789072	 -0.386526
C	 -1.928215	 -0.056210	 -1.689912
H	 -2.035389	 -2.100459	 -2.357680
H	 -0.684668	 -1.767858	 -1.301599
C	 -1.815028	 0.805074	 -0.426694
H	 -1.202943	 0.286868	 -2.425524
H	 -2.908628	 0.108302	 -2.131984
C	 -2.931897	 0.594217	 0.599280
H	 -0.861150	 0.588872	 0.049949
H	 -1.779255	 1.855880	 -0.710178
C	 -4.292826	 1.094324	 0.110200
H	 -2.672207	 1.108571	 1.523462
H	 -3.015070	 -0.460410	 0.850570
C	 -4.634544	 0.614869	 -1.300125
H	 -5.066559	 0.764885	 0.800341
H	 -4.306366	 2.182035	 0.134440
H	 -4.661043	 -0.470056	 -1.349713
H	 -5.605060	 0.983970	 -1.617141
H	 -3.898407	 0.959575	 -2.020989

14 10 7 4 F

14 10 13 16 F

10 7 4 8 F

8 4 3 2 F

10 13 16 20 F

20 16 19 22 F

