%nprocshared=1
%mem=2GB
#HF/6-31G* nosymm scf=tight 

Mol

0 1
H	 2.556920	 1.993440	 -1.972176
O	 1.619488	 1.902900	 -2.070313
C	 1.088455	 1.214815	 -1.036420
C	 1.862573	 0.726324	 0.008291
C	 -0.279132	 1.002444	 -1.042231
H	 2.926693	 0.892694	 0.010889
C	 1.269254	 0.026465	 1.045518
H	 -0.878231	 1.379225	 -1.848576
C	 -0.865228	 0.300799	 0.000000
H	 1.878633	 -0.346724	 1.848491
C	 -0.096794	 -0.190421	 1.047847
C	 -2.333960	 0.069074	 0.000000
H	 -0.559737	 -0.733771	 1.852496
O	 -2.847347	 -1.003763	 0.000000
H	 -2.943845	 0.977528	 0.000000

4 3 2 1 F

