%nprocshared=1
%mem=2GB
#HF/6-31G* nosymm scf=tight 

Mol

0 1
H	 -0.124562	 -3.735866	 0.265615
O	 0.229269	 -2.858139	 0.159849
C	 -0.788811	 -1.998413	 0.163536
C	 -0.318135	 -0.576402	 0.000164
O	 -1.915936	 -2.353582	 0.283705
C	 -1.454360	 0.441875	 -0.000474
H	 0.390739	 -0.375753	 0.799063
H	 0.254685	 -0.528537	 -0.922111
C	 -2.826123	 -0.230780	 0.000056
H	 -1.357605	 1.085198	 -0.868380
H	 -1.357504	 1.086451	 0.866496
H	 -2.959731	 -0.858053	 -0.876869
H	 -3.619374	 0.509403	 -0.000080
H	 -2.959371	 -0.857318	 0.877556

2 3 4 7 F

1 2 3 5 F

