%nprocshared=1
%mem=2GB
#HF/6-31G* nosymm scf=tight 

Mol

0 1
H	 2.652209	 0.763231	 0.000000
O	 2.263154	 -0.100023	 0.000000
C	 0.912879	 -0.015685	 0.000000
C	 0.333446	 0.966655	 0.792369
C	 0.115268	 -0.863161	 -0.751455
H	 0.969905	 1.613363	 1.367258
C	 -1.041758	 1.092066	 0.825462
H	 0.565491	 -1.624942	 -1.365872
C	 -1.264541	 -0.725977	 -0.708744
H	 -1.485656	 1.854402	 1.440674
C	 -1.852070	 0.248522	 0.076635
H	 -1.876579	 -1.387964	 -1.295151
H	 -2.921218	 0.352130	 0.107478
