%nprocshared=1
%mem=2GB
#HF/6-31G* nosymm scf=tight 
prop=(read,field)

Mol

0 1
H	 -2.577140	 0.734643	 0.874392
C	 -2.545707	 0.095777	 0.000202
C	 -1.290528	 -0.768679	 -0.000257
H	 -2.577110	 0.735482	 -0.873339
H	 -3.433470	 -0.528044	 -0.000069
C	 -0.000005	 0.033346	 -0.000001
H	 -1.275604	 -1.426916	 -0.866800
H	 -1.275643	 -1.427826	 0.865595
C	 1.290528	 -0.768669	 0.000276
O	 -0.000022	 1.226319	 -0.000157
C	 2.545731	 0.095762	 -0.000061
H	 1.275672	 -1.427757	 -0.865626
H	 1.275566	 -1.426969	 0.866768
H	 2.577157	 0.734884	 -0.874036
H	 3.433520	 -0.528022	 0.000137
H	 2.577172	 0.735234	 0.873581

@grid.dat /N
