%nprocshared=1
%mem=2GB
#HF/6-31G* nosymm scf=tight opt=ModRedundant

Mol

0 1
O	 -2.926000	 1.328000	 -0.000000
C	 -2.773000	 0.149000	 -0.000000
C	 -3.906000	 -0.845000	 0.000000
O	 -1.586000	 -0.435000	 -0.000000
H	 -4.522000	 -0.670000	 -0.874000
H	 -3.549000	 -1.864000	 -0.000000
H	 -4.521000	 -0.670000	 0.875000
C	 -0.439000	 0.408000	 0.000000
C	 0.787000	 -0.485000	 -0.000000
H	 -0.470000	 1.044000	 -0.874000
H	 -0.470000	 1.044000	 0.875000
C	 2.087000	 0.321000	 0.000000
H	 0.751000	 -1.132000	 -0.872000
H	 0.751000	 -1.133000	 0.872000
C	 3.337000	 -0.562000	 -0.000000
H	 2.111000	 0.974000	 -0.871000
H	 2.111000	 0.974000	 0.871000
C	 4.635000	 0.243000	 0.000000
H	 3.316000	 -1.214000	 -0.871000
H	 3.316000	 -1.214000	 0.870000
H	 4.701000	 0.881000	 -0.877000
H	 5.502000	 -0.410000	 -0.000000
H	 4.701000	 0.881000	 0.877000
