%nprocshared=1
%mem=2GB
#HF/6-31G* nosymm scf=tight opt=ModRedundant

Mol

0 1
H	 -0.367000	 2.048000	 -0.332000
C	 0.352000	 1.337000	 0.059000
N	 0.000000	 -0.000000	 -0.360000
H	 1.328000	 1.601000	 -0.332000
H	 0.382000	 1.451000	 1.148000
C	 0.982000	 -0.974000	 0.059000
C	 -1.334000	 -0.364000	 0.059000
H	 0.722000	 -1.951000	 -0.333000
H	 1.957000	 -0.706000	 -0.332000
H	 1.065000	 -1.056000	 1.148000
H	 -2.051000	 0.350000	 -0.333000
H	 -1.589000	 -1.342000	 -0.332000
H	 -1.447000	 -0.394000	 1.148000
