%nprocshared=1
%mem=2GB
#HF/6-31G* nosymm scf=tight 

Mol

0 1
O	 -0.806752	 -1.114546	 1.082146
C	 -0.561929	 -0.074560	 0.531515
C	 -1.597472	 1.034011	 0.503089
N	 0.623947	 0.147590	 -0.102813
H	 -1.868528	 1.298769	 -0.513038
H	 -2.472791	 0.671041	 1.019920
H	 -1.237628	 1.928840	 0.999450
C	 1.815702	 -0.503742	 0.404498
C	 0.858660	 1.239231	 -1.022311
H	 2.628104	 -0.371067	 -0.301488
H	 1.622616	 -1.554456	 0.533561
H	 2.119968	 -0.082146	 1.360061
H	 1.584037	 0.927623	 -1.764449
H	 -0.042368	 1.519206	 -1.544515
H	 1.252971	 2.118772	 -0.516605

2 4 8 10 F

