%nprocshared=1
%mem=2GB
#HF/6-31G* nosymm scf=tight 

Mol

0 1
H	 2.257630	 1.834031	 -1.153331
N	 1.449140	 1.245334	 -1.210713
C	 1.267428	 0.496480	 0.024474
H	 1.599519	 0.621359	 -1.980749
C	 -0.016086	 -0.325158	 -0.029487
H	 1.200461	 1.212940	 0.837637
H	 2.109120	 -0.161270	 0.255341
C	 -1.282277	 0.529072	 0.046735
H	 -0.012495	 -0.908639	 -0.945788
H	 -0.015903	 -1.041248	 0.791956
C	 -2.494184	 -0.248786	 0.558516
H	 -1.504606	 0.932566	 -0.939039
H	 -1.105293	 1.385613	 0.694014
H	 -2.718949	 -1.092414	 -0.087621
H	 -3.377373	 0.381106	 0.600161
H	 -2.317171	 -0.636932	 1.557630

6 3 5 9 F

1 2 3 6 F

