%nprocshared=1
%mem=2GB
#HF/6-31G* nosymm scf=tight 

Mol

0 1
H	 2.046442	 -5.052464	 -2.731247
C	 2.007917	 -4.133665	 -2.175014
C	 0.902380	 -3.831716	 -1.387081
C	 3.053749	 -3.235598	 -2.231269
H	 0.077795	 -4.520024	 -1.331216
C	 0.849430	 -2.654559	 -0.672451
H	 3.916952	 -3.452337	 -2.835413
C	 3.015855	 -2.043279	 -1.516150
H	 0.001752	 -2.408972	 -0.060109
C	 1.909254	 -1.752228	 -0.733971
H	 3.844749	 -1.365442	 -1.580497
O	 1.765256	 -0.628444	 0.000000
C	 2.778419	 0.335181	 0.000000
H	 2.731280	 0.961222	 -0.884976
H	 3.711703	 -0.207767	 0.000000
H	 2.731280	 0.961222	 0.884976

13 12 10 8 F

