%nprocshared=24
%mem=2GB
#HF/6-31G* nosymm scf=tight 

Mol

0 1
H	 -3.892951	 0.981613	 -0.358725
C	 -3.196921	 0.361773	 0.172313
C	 -2.076860	 -0.007332	 -0.404944
H	 -3.439953	 0.057760	 1.173024
O	 -1.180634	 -0.819263	 0.215062
H	 -1.811520	 0.292194	 -1.403480
C	 0.051604	 -1.018856	 -0.387932
C	 1.043764	 0.054862	 -0.001873
H	 -0.017620	 -1.041351	 -1.469781
H	 0.437898	 -1.966374	 -0.042284
F	 1.822843	 0.328346	 -1.038236
F	 0.439443	 1.176700	 0.353239
F	 1.814754	 -0.320001	 0.997847

3 5 7 9 F

6 3 2 1 F

6 3 5 7 F

