%nprocshared=1
%mem=2GB
#HF/6-31G* nosymm scf=tight 

Mol

0 1
H	 -3.727305	 -0.809995	 1.906144
C	 -2.681325	 -0.950531	 1.698874
C	 -1.968938	 -1.931583	 2.372068
C	 -2.050014	 -0.150327	 0.759698
H	 -2.459757	 -2.551493	 3.100200
C	 -0.624048	 -2.111687	 2.105020
H	 -2.603864	 0.609653	 0.238846
C	 -0.703840	 -0.328812	 0.490750
H	 -0.057052	 -2.865861	 2.616302
C	 0.012932	 -1.311191	 1.163753
H	 -0.211267	 0.288149	 -0.235233
C	 1.463013	 -1.545621	 0.912827
O	 1.970282	 -0.730723	 0.000018
O	 2.108936	 -2.377109	 1.469845
C	 3.377318	 -0.566646	 -0.000065
H	 3.695437	 -0.028981	 -0.881264
H	 3.789299	 -1.563704	 0.000236
H	 3.695516	 -0.028316	 0.880770

12 13 15 16 F

13 12 10 6 F

