%nprocshared=1
%mem=2GB
#HF/6-31G* nosymm scf=tight 

Mol

0 1
O	 -0.682937	 1.318834	 -0.186099
C	 -0.860635	 0.152188	 -0.042321
C	 -2.173363	 -0.477127	 0.338347
O	 0.083258	 -0.765189	 -0.202595
H	 -2.477673	 -1.180929	 -0.427595
H	 -2.923125	 0.290956	 0.455536
H	 -2.058825	 -1.029004	 1.264191
C	 0.561275	 -1.023266	 -1.520812
C	 -0.514410	 -1.646952	 -2.390618
H	 1.435006	 -1.654557	 -1.464194
H	 0.850841	 -0.053320	 -1.898773
H	 -0.145659	 -1.761095	 -3.405371
H	 -0.793000	 -2.624717	 -2.018151
H	 -1.396409	 -1.016263	 -2.417544

10 8 4 2 F

