%nprocshared=1
%mem=2GB
#HF/6-31G* nosymm scf=tight 

Mol

0 1
H	 2.233508	 -0.590042	 0.311931
C	 1.817904	 -0.574895	 -0.702882
C	 0.537048	 0.203385	 -0.859812
O	 2.373890	 -1.146379	 -1.584026
C	 -0.558097	 -0.297372	 0.091132
H	 0.223041	 0.135893	 -1.894860
H	 0.754501	 1.248224	 -0.641051
C	 -1.850991	 0.512573	 -0.019058
H	 -0.767688	 -1.342949	 -0.122441
H	 -0.195761	 -0.258458	 1.116830
C	 -3.096943	 -0.368295	 -0.099594
H	 -1.800724	 1.150330	 -0.898172
H	 -1.931651	 1.177355	 0.838044
H	 -3.060452	 -1.020287	 -0.967456
H	 -3.996858	 0.233488	 -0.175704
H	 -3.191959	 -0.995686	 0.782074

6 3 5 9 F

4 2 3 6 F

