%nprocshared=1
%mem=2GB
#HF/6-31G* nosymm scf=tight 

Mol

0 1
H	 -3.420663	 1.227371	 -1.044276
O	 -3.452007	 0.283848	 -0.965577
C	 -3.181085	 -0.079926	 0.364119
C	 -1.765924	 0.277073	 0.805136
H	 -3.327791	 -1.152017	 0.410903
H	 -3.905698	 0.375695	 1.036898
C	 -0.677594	 -0.417312	 -0.014550
H	 -1.637766	 1.358238	 0.744969
H	 -1.659588	 0.017670	 1.857098
C	 0.738335	 -0.034840	 0.421385
H	 -0.814977	 -0.178223	 -1.064632
H	 -0.802730	 -1.495410	 0.071702
C	 1.816273	 -0.579637	 -0.519534
H	 0.809658	 1.048609	 0.480301
H	 0.920420	 -0.407984	 1.428466
C	 1.954987	 -2.106370	 -0.520606
H	 2.775841	 -0.132806	 -0.264059
H	 1.590900	 -0.253198	 -1.532678
C	 2.825706	 -2.664993	 -1.647634
H	 0.961922	 -2.542138	 -0.599472
H	 2.353006	 -2.431960	 0.438443
H	 2.458575	 -2.345024	 -2.619217
H	 2.822238	 -3.750662	 -1.635455
H	 3.858137	 -2.342751	 -1.561546

20 16 13 17 F

17 13 10 7 F

11 7 4 3 F

1 2 3 5 F

7 4 3 2 F

