%nprocshared=1
%mem=2GB
#HF/6-31G* nosymm scf=tight 

Mol

0 1
H	 1.921989	 -0.566793	 0.570288
C	 1.076478	 -0.623739	 -0.101406
O	 0.000000	 0.000000	 0.521119
H	 1.336186	 -0.131078	 -1.037101
H	 0.863591	 -1.670713	 -0.311681
C	 -1.165642	 0.000000	 -0.238270
H	 -1.228672	 0.883184	 -0.872070
H	 -2.003012	 0.000000	 0.445920
H	 -1.228672	 -0.883184	 -0.872070
