%nprocshared=1
%mem=2GB
#HF/6-31G* nosymm scf=tight 

Mol

0 1
H	 1.216412	 -2.302012	 0.179799
C	 0.246841	 -1.832300	 0.216651
O	 0.464886	 -0.454746	 -0.000158
H	 -0.199321	 -2.007800	 1.188332
H	 -0.384550	 -2.253196	 -0.556817
C	 -0.590998	 0.343045	 0.000118
O	 -1.699443	 -0.054298	 0.000227
H	 -0.340329	 1.404368	 0.000207
