%nprocshared=1
%mem=2GB
#HF/6-31G* nosymm scf=tight 

Mol

0 1
H	 -2.532260	 0.685271	 0.794712
O	 -1.624576	 0.489458	 0.975923
C	 -0.911341	 1.684746	 1.167328
C	 -1.224437	 2.365533	 2.495193
H	 0.135474	 1.411274	 1.134684
H	 -1.091554	 2.372387	 0.341827
C	 -1.192978	 1.422727	 3.700596
H	 -0.512651	 3.173194	 2.644895
H	 -2.210118	 2.821484	 2.418317
C	 -2.332593	 0.400119	 3.681378
H	 -1.246763	 2.008806	 4.613823
H	 -0.239577	 0.894626	 3.722442
C	 -2.542324	 -0.305100	 2.336380
H	 -2.157788	 -0.345285	 4.455112
H	 -3.256621	 0.906566	 3.952272
C	 -3.034785	 0.600176	 1.203932
H	 -1.598270	 -0.754463	 2.035296
H	 -3.240647	 -1.130203	 2.468238
C	 -4.465221	 1.099239	 1.418936
H	 -2.982789	 0.056778	 0.261528
H	 -2.375822	 1.458508	 1.097461
C	 -5.411106	 0.710962	 0.283063
H	 -4.847259	 0.703375	 2.357459
H	 -4.456195	 2.181939	 1.526468
H	 -5.467273	 -0.368187	 0.171231
H	 -6.416738	 1.077069	 0.465559
H	 -5.076338	 1.123259	 -0.664726

14 10 7 4 F

14 10 13 16 F

10 7 4 8 F

8 4 3 2 F

10 13 16 20 F

4 3 2 1 F

