%nprocshared=1
%mem=2GB
#HF/6-31G* nosymm scf=tight 

Mol

0 1
H	 -3.042581	 -0.665861	 0.004336
O	 -2.245037	 -1.176175	 0.000806
C	 -1.162163	 -0.365336	 0.001020
C	 -1.102497	 0.794512	 0.752367
C	 -0.088647	 -0.740681	 -0.797422
H	 -1.934837	 1.088125	 1.369598
C	 0.043317	 1.575492	 0.696760
H	 -0.169992	 -1.646704	 -1.369805
C	 1.054027	 0.038113	 -0.851177
H	 0.092188	 2.479325	 1.277911
C	 1.113133	 1.208387	 -0.094252
C	 2.231316	 -0.381368	 -1.700369
H	 1.993519	 1.825691	 -0.128676
H	 2.644632	 0.463648	 -2.240653
H	 1.948377	 -1.137150	 -2.423280
H	 3.024203	 -0.793636	 -1.082539
