%nprocshared=1
%mem=2GB
#HF/6-31G* nosymm scf=tight 

Mol

0 1
H	 -3.808487	 -2.368668	 -0.158268
C	 -2.736997	 -2.275585	 -0.163684
C	 -1.946683	 -3.397347	 -0.364189
C	 -2.150821	 -1.034660	 0.029796
H	 -2.402563	 -4.359147	 -0.514119
C	 -0.569033	 -3.276868	 -0.371020
H	 -2.765068	 -0.166215	 0.185072
C	 -0.771979	 -0.911671	 0.023357
H	 0.058163	 -4.134006	 -0.524681
C	 0.022879	 -2.034029	 -0.177336
H	 -0.314116	 0.046654	 0.172676
C	 1.511035	 -1.957991	 -0.193650
O	 1.970282	 -0.730723	 0.000018
O	 2.223644	 -2.897417	 -0.362540
C	 3.377318	 -0.566646	 -0.000065
H	 3.695437	 -0.028981	 -0.881264
H	 3.789299	 -1.563704	 0.000236
H	 3.695516	 -0.028316	 0.880770

10 12 13 15 F

13 12 10 6 F

