%nprocshared=1
%mem=2GB
#HF/6-31G* nosymm scf=tight 

Mol

0 1
H	 -2.646374	 -0.642757	 1.268656
C	 -2.083525	 -0.384536	 0.393091
O	 -0.807605	 -0.127164	 0.768327
F	 -2.118945	 -1.383102	 -0.486752
F	 -2.621877	 0.670592	 -0.209486
C	 0.084052	 0.273579	 -0.209957
C	 0.229868	 1.784771	 -0.086678
Cl	 -0.506220	 -0.166854	 -1.820799
H	 1.055821	 -0.171331	 -0.085482
F	 -0.886690	 2.384617	 -0.441113
F	 1.186226	 2.186534	 -0.899945
F	 0.539074	 2.154170	 1.132301

10 7 6 9 F

6 3 2 4 F

