%nprocshared=1
%mem=2GB
#HF/6-31G* nosymm scf=tight 

Mol

0 1
H	 -0.916402	 1.773354	 0.859530
C	 -0.240759	 0.940328	 1.059184
N	 0.538815	 0.649616	 0.000000
O	 -0.226204	 0.376567	 2.113305
C	 1.521968	 -0.411503	 0.000000
H	 0.426564	 1.197931	 -0.821605
H	 2.150599	 -0.357004	 -0.881901
H	 0.999455	 -1.354525	 0.000000
H	 2.150599	 -0.357004	 0.881901

1 2 3 6 F

