%nprocshared=1
%mem=2GB
#HF/6-31G* nosymm scf=tight 

Mol

0 1
O	 -2.042549	 -1.228399	 -0.269030
C	 -1.653912	 -0.146171	 0.050137
C	 -0.332303	 0.024011	 0.778412
C	 -2.438579	 1.106236	 -0.272369
C	 -0.359496	 1.266486	 1.682509
H	 -0.106693	 -0.858907	 1.369968
H	 0.443764	 0.137286	 0.029539
C	 -0.413567	 2.572018	 0.887717
H	 0.519716	 1.273825	 2.324394
H	 -1.222644	 1.198837	 2.337902
C	 -1.472999	 2.550339	 -0.213346
H	 -0.612241	 3.399770	 1.565050
H	 0.562186	 2.763427	 0.447449
H	 -2.465568	 2.394401	 0.199621
H	 -1.281980	 1.752392	 -0.924848
H	 -1.486589	 3.486843	 -0.761801
H	 -3.277823	 0.863061	 -0.908988
H	 -1.806773	 1.843019	 -0.759671
H	 -2.802853	 1.554979	 0.648059

11 8 5 9 F

9 5 3 2 F

