%nprocshared=1
%mem=2GB
#HF/6-31G* nosymm scf=tight 

Mol

0 1
H	 1.206855	 -2.314598	 -0.000203
C	 0.235364	 -1.847414	 -0.000327
O	 0.464886	 -0.454746	 -0.000158
H	 -0.308778	 -2.152563	 0.885573
H	 -0.308510	 -2.152443	 -0.886453
C	 -0.590998	 0.343045	 0.000118
O	 -1.699443	 -0.054298	 0.000227
H	 -0.340329	 1.404368	 0.000207
