%nprocshared=1
%mem=2GB
#HF/6-31G* nosymm scf=tight 

Mol

0 1
H	 -3.161837	 0.500524	 -0.000234
C	 -2.367097	 -0.232926	 -0.000000
O	 -1.158440	 0.455814	 -0.000122
H	 -2.468853	 -0.861886	 -0.882833
H	 -2.468942	 -0.861421	 0.883154
C	 -0.040680	 -0.346062	 -0.235665
C	 1.202555	 0.525900	 -0.209006
H	 -0.133013	 -0.844402	 -1.201601
H	 0.027974	 -1.126632	 0.523219
C	 2.481467	 -0.271993	 -0.459268
H	 1.093425	 1.303960	 -0.958256
H	 1.253371	 1.023687	 0.754490
H	 2.461272	 -0.759020	 -1.430257
H	 3.352288	 0.374453	 -0.434281
H	 2.622045	 -1.041871	 0.294343

11 7 6 8 F

8 6 3 2 F

