%nprocshared=1
%mem=2GB
#HF/6-31G* nosymm scf=tight opt=ModRedundant

Mol

0 1
H	 -3.569000	 -0.146000	 -0.000000
O	 -2.784000	 -0.686000	 -0.000000
C	 -1.726000	 0.124000	 0.000000
C	 -0.432000	 -0.649000	 0.000000
O	 -1.835000	 1.307000	 0.000000
C	 0.806000	 0.242000	 0.000000
H	 -0.448000	 -1.304000	 -0.867000
H	 -0.448000	 -1.304000	 0.867000
C	 2.103000	 -0.568000	 0.000000
H	 0.778000	 0.894000	 -0.867000
H	 0.778000	 0.894000	 0.868000
C	 3.350000	 0.317000	 -0.000000
H	 2.124000	 -1.220000	 -0.870000
H	 2.125000	 -1.220000	 0.871000
H	 3.375000	 0.957000	 -0.878000
H	 4.255000	 -0.282000	 0.000000
H	 3.375000	 0.958000	 0.876000
