%nprocshared=1
%mem=2GB
#HF/6-31G* nosymm scf=tight 

Mol

0 1
H	 -0.000158	 1.970498	 0.756846
O	 -0.000074	 1.880206	 -0.189275
C	 -0.000015	 0.544847	 -0.545111
C	 -1.423686	 -0.001099	 -0.512102
C	 0.979590	 -0.226288	 0.333366
H	 0.351747	 0.474818	 -1.563670
F	 -2.174546	 0.670550	 -1.358649
F	 -1.477502	 -1.274335	 -0.841245
F	 -1.952293	 0.136232	 0.693432
F	 2.191713	 0.261599	 0.177605
F	 1.014808	 -1.507803	 0.035272
F	 0.658107	 -0.108625	 1.611796

7 4 3 6 F

