%nprocshared=1
%mem=2GB
#HF/6-31G* nosymm scf=tight 

Mol

0 1
H	 3.219212	 -6.575236	 0.619639
C	 2.871196	 -5.558832	 0.670538
C	 1.956402	 -5.189378	 1.645116
C	 3.338681	 -4.622693	 -0.238326
H	 1.594649	 -5.916380	 2.349368
C	 1.509387	 -3.882297	 1.709930
H	 4.047791	 -4.910929	 -0.993104
C	 2.892610	 -3.313713	 -0.175352
H	 0.801701	 -3.578526	 2.457309
C	 1.975793	 -2.940266	 0.800223
H	 3.251701	 -2.585996	 -0.876638
C	 1.463013	 -1.545621	 0.912827
O	 1.970282	 -0.730723	 0.000018
O	 0.677984	 -1.189484	 1.734869
C	 3.377318	 -0.566646	 -0.000065
H	 3.695437	 -0.028981	 -0.881264
H	 3.789299	 -1.563704	 0.000236
H	 3.695516	 -0.028316	 0.880770

12 13 15 16 F

13 12 10 6 F

