%nprocshared=1
%mem=2GB
#HF/6-31G* nosymm scf=tight 

Mol

0 1
H	 -3.420663	 1.227371	 -1.044276
O	 -3.452007	 0.283848	 -0.965577
C	 -3.181085	 -0.079926	 0.364119
C	 -1.765924	 0.277073	 0.805136
H	 -3.327791	 -1.152017	 0.410903
H	 -3.905698	 0.375695	 1.036898
C	 -0.677594	 -0.417312	 -0.014550
H	 -1.637766	 1.358238	 0.744969
H	 -1.659588	 0.017670	 1.857098
C	 -0.370942	 0.296933	 -1.332502
H	 -0.979888	 -1.440808	 -0.214010
H	 0.230824	 -0.478425	 0.582471
C	 -0.174561	 1.805281	 -1.158129
H	 0.518500	 -0.144770	 -1.775458
H	 -1.182643	 0.120766	 -2.037278
C	 -1.434678	 2.572383	 -0.741215
H	 0.211622	 2.227119	 -2.084741
H	 0.594582	 1.971310	 -0.406684
C	 -1.183924	 4.015934	 -0.301113
H	 -1.908845	 2.036379	 0.077415
H	 -2.148858	 2.564062	 -1.562239
H	 -0.463265	 4.056319	 0.511388
H	 -2.102136	 4.476962	 0.049852
H	 -0.802895	 4.627805	 -1.112035

20 16 13 17 F

17 13 10 7 F

13 10 7 11 F

1 2 3 5 F

7 4 3 2 F

