%nprocshared=1
%mem=2GB
#HF/6-31G* nosymm scf=tight 

Mol

0 1
O	 -0.682937	 1.318834	 -0.186099
C	 -0.860635	 0.152188	 -0.042321
C	 -2.173363	 -0.477127	 0.338347
O	 0.083258	 -0.765189	 -0.202595
H	 -2.477673	 -1.180929	 -0.427595
H	 -2.923125	 0.290956	 0.455536
H	 -2.058825	 -1.029004	 1.264191
C	 1.391937	 -0.334737	 -0.569838
C	 1.610931	 -0.435624	 -2.068007
H	 2.121962	 -0.915360	 -0.026624
H	 1.441868	 0.692817	 -0.239476
H	 2.585142	 -0.030994	 -2.324750
H	 1.574469	 -1.467282	 -2.394688
H	 0.855467	 0.129729	 -2.602859

8 4 2 1 F

