%nprocshared=1
%mem=2GB
#HF/6-31G* nosymm scf=tight 

Mol

0 1
H	 -0.367348	 2.047014	 -0.308205
C	 0.352277	 1.337084	 0.083769
N	 -0.000016	 0.000074	 -0.335546
H	 1.328359	 1.600444	 -0.307950
H	 0.381933	 1.450534	 1.172486
C	 1.123466	 -0.905092	 -0.253482
C	 -1.152164	 -0.503385	 0.376662
H	 0.841594	 -1.877196	 -0.641959
H	 1.942976	 -0.529739	 -0.855957
H	 1.489404	 -1.041756	 0.769403
H	 -1.993780	 0.164999	 0.234114
H	 -1.429183	 -1.476466	 -0.012969
H	 -0.979215	 -0.605692	 1.453022
