%nprocshared=1
%mem=2GB
#HF/6-31G* nosymm scf=tight 

Mol

0 1
O	 1.254121	 -2.496520	 1.128140
C	 0.375733	 -1.893597	 0.602502
C	 -1.059535	 -2.338091	 0.531817
O	 0.550821	 -0.724572	 0.000672
H	 -1.695963	 -1.596264	 1.000150
H	 -1.168990	 -3.288885	 1.031720
H	 -1.364725	 -2.425569	 -0.504420
C	 1.863949	 -0.193559	 -0.000319
H	 2.028859	 0.409284	 -0.881648
H	 2.526261	 -1.045082	 -0.000003
H	 2.029520	 0.410555	 0.880008

8 4 2 1 F

