%nprocshared=1
%mem=2GB
#HF/6-31G* nosymm scf=tight 

Mol

0 1
H	 -3.453543	 1.095407	 1.122557
O	 -3.601255	 1.807587	 1.727579
C	 -4.840244	 1.636041	 2.367526
C	 -4.833791	 0.512971	 3.398738
H	 -5.052642	 2.578786	 2.855167
H	 -5.627797	 1.467001	 1.634064
C	 -3.639899	 0.553624	 4.355732
H	 -5.758960	 0.561413	 3.967141
H	 -4.838074	 -0.436517	 2.865990
C	 -2.312059	 0.245546	 3.658059
H	 -3.801737	 -0.159715	 5.159052
H	 -3.580084	 1.538872	 4.818386
C	 -2.087810	 0.996018	 2.340165
H	 -1.491112	 0.461620	 4.339385
H	 -2.266020	 -0.822873	 3.457904
C	 -3.034785	 0.600176	 1.203932
H	 -2.200619	 2.061381	 2.530142
H	 -1.057580	 0.854701	 2.016911
C	 -4.465221	 1.099239	 1.418936
H	 -3.044660	 -0.484477	 1.106250
H	 -2.666261	 0.987989	 0.257311
C	 -5.411106	 0.710962	 0.283063
H	 -4.847259	 0.703375	 2.357459
H	 -4.456195	 2.181939	 1.526468
H	 -5.467273	 -0.368187	 0.171231
H	 -6.416738	 1.077069	 0.465559
H	 -5.076338	 1.123259	 -0.664726

14 10 7 4 F

14 10 13 16 F

10 7 4 8 F

8 4 3 2 F

20 16 19 22 F

4 3 2 1 F

