%nprocshared=1
%mem=2GB
#HF/6-31G* nosymm scf=tight 

Mol

0 1
H	 -2.698709	 -0.000305	 0.034435
C	 -1.693833	 0.000034	 0.434417
O	 -0.828952	 -0.000968	 -0.659236
H	 -1.574200	 0.882896	 1.055746
H	 -1.574147	 -0.881698	 1.057355
C	 -0.078944	 -1.163540	 -0.924601
C	 1.071470	 -1.355630	 0.061586
C	 -0.953806	 -2.409679	 -1.045895
H	 0.349671	 -0.962962	 -1.899326
H	 1.639871	 -0.437061	 0.160062
H	 1.739832	 -2.133124	 -0.294829
H	 0.723587	 -1.651029	 1.046412
H	 -1.787569	 -2.220460	 -1.713347
H	 -0.373274	 -3.232632	 -1.451105
H	 -1.348003	 -2.730054	 -0.086828

9 6 3 2 F

