%nprocshared=1
%mem=2GB
#HF/6-31G* nosymm scf=tight 

Mol

0 1
H	 -3.457960	 0.166880	 1.449720
O	 -3.367910	 -0.300316	 2.267454
C	 -3.043259	 -1.643282	 2.012310
C	 -1.609705	 -1.833855	 1.529264
H	 -3.184960	 -2.163733	 2.950780
H	 -3.740919	 -2.074362	 1.295219
C	 -1.355697	 -3.182080	 0.850562
H	 -1.367483	 -1.027721	 0.841629
H	 -0.946462	 -1.729798	 2.386380
C	 -1.438221	 -4.359843	 1.825694
H	 -0.375590	 -3.166952	 0.382025
H	 -2.083037	 -3.328095	 0.051815
C	 -2.658028	 -4.342814	 2.754199
H	 -1.427092	 -5.291723	 1.263268
H	 -0.539238	 -4.365429	 2.438474
C	 -2.673364	 -3.203680	 3.777242
H	 -3.553545	 -4.269712	 2.140586
H	 -2.726432	 -5.296582	 3.275242
C	 -3.957517	 -3.166249	 4.608498
H	 -2.554663	 -2.253530	 3.258364
H	 -1.822890	 -3.292354	 4.448907
C	 -3.972683	 -2.034000	 5.634874
H	 -4.813083	 -3.062525	 3.944619
H	 -4.082855	 -4.118347	 5.120049
H	 -3.881840	 -1.065365	 5.151431
H	 -4.895784	 -2.032869	 6.206293
H	 -3.149427	 -2.129952	 6.337304

14 10 7 4 F

14 10 13 16 F

10 7 4 8 F

10 13 16 20 F

20 16 19 22 F

4 3 2 1 F

