%nprocshared=1
%mem=2GB
#HF/6-31G* nosymm scf=tight 

Mol

0 1
H	 -0.890397	 2.169344	 -0.141580
C	 -0.450599	 1.462986	 0.554824
N	 -0.528168	 0.128977	 -0.000000
H	 -1.020983	 1.508512	 1.475490
H	 0.569207	 1.795563	 0.766136
C	 0.248044	 -0.037491	 -1.209632
H	 -0.235397	 -0.539524	 0.684411
H	 0.998722	 0.743888	 -1.266824
H	 -0.398417	 0.061950	 -2.074060
H	 0.763621	 -0.999315	 -1.275517
