%nprocshared=24
%mem=2GB
#HF/6-31G* nosymm scf=tight 

Mol

0 1
H	 -2.455504	 -1.062989	 3.255514
C	 -2.425350	 -0.963885	 2.187839
C	 -1.271134	 -0.975404	 1.562018
H	 -3.351856	 -0.856911	 1.655811
O	 -0.155585	 -1.516545	 2.118414
H	 -1.143624	 -0.577902	 0.570590
C	 1.056512	 -1.332684	 1.471216
C	 1.110360	 -2.084322	 0.160325
H	 1.899030	 -1.648465	 2.076311
H	 1.157302	 -0.279632	 1.253482
F	 -0.015531	 -1.884223	 -0.509104
F	 2.109472	 -1.670937	 -0.601724
F	 1.251391	 -3.381468	 0.338966

11 8 7 9 F

3 5 7 9 F

6 3 5 7 F

