%nprocshared=1
%mem=2GB
#HF/6-31G* nosymm scf=tight 

Mol

0 1
H	 -0.687322	 1.985602	 0.911572
C	 0.041532	 1.201878	 1.123315
N	 0.538815	 0.649616	 0.000000
O	 0.337030	 0.898416	 2.241260
C	 1.521968	 -0.411503	 0.000000
H	 0.207592	 0.995048	 -0.871351
H	 2.150599	 -0.357004	 -0.881901
H	 0.999455	 -1.354525	 0.000000
H	 2.150599	 -0.357004	 0.881901

1 2 3 6 F

