%nprocshared=1
%mem=2GB
#HF/6-31G* nosymm scf=tight opt=ModRedundant

Mol

0 1
H	 0.000000	 -1.371000	 -1.194000
N	 0.000000	 -1.256000	 -0.198000
C	 1.151000	 -0.452000	 0.192000
C	 -1.151000	 -0.452000	 0.191000
H	 2.039000	 -0.770000	 -0.341000
H	 1.334000	 -0.612000	 1.250000
C	 0.774000	 1.023000	 -0.070000
H	 -1.335000	 -0.612000	 1.249000
H	 -2.039000	 -0.770000	 -0.343000
C	 -0.774000	 1.023000	 -0.069000
H	 1.157000	 1.351000	 -1.031000
H	 1.190000	 1.687000	 0.681000
H	 -1.189000	 1.686000	 0.682000
H	 -1.157000	 1.352000	 -1.030000
