%nprocshared=1
%mem=2GB
#HF/6-31G* nosymm scf=tight 

Mol

0 1
H	 -3.161837	 0.500524	 -0.000234
C	 -2.367097	 -0.232926	 -0.000000
O	 -1.158440	 0.455814	 -0.000122
H	 -2.468853	 -0.861886	 -0.882833
H	 -2.468942	 -0.861421	 0.883154
C	 -1.058687	 1.440634	 0.983775
C	 0.300233	 2.109559	 0.871797
H	 -1.182068	 0.997128	 1.972703
H	 -1.854304	 2.176601	 0.860266
C	 1.276382	 1.633316	 1.946602
H	 0.702774	 1.907959	 -0.116120
H	 0.161705	 3.184179	 0.940355
H	 1.447943	 0.562546	 1.879943
H	 2.236951	 2.126760	 1.843324
H	 0.902685	 1.847210	 2.944101

6 3 2 4 F

8 6 3 2 F

