%nprocshared=1
%mem=2GB
#HF/6-31G* nosymm scf=tight 

Mol

0 1
H	 -2.273092	 1.173159	 0.000295
O	 -1.438904	 1.618192	 0.000114
C	 -0.409536	 0.736003	 0.000030
C	 -0.731335	 -0.594895	 0.215332
C	 0.910732	 1.130909	 -0.204621
H	 -1.761969	 -0.856116	 0.368788
C	 0.265646	 -1.551637	 0.228899
C	 1.892573	 0.147740	 -0.185787
C	 1.259798	 2.583536	 -0.439217
H	 0.009376	 -2.582530	 0.396465
C	 1.586559	 -1.184548	 0.027872
H	 2.917478	 0.436582	 -0.342265
H	 0.973991	 3.211542	 0.402130
H	 2.326788	 2.702938	 -0.577971
H	 0.774733	 2.979865	 -1.328954
H	 2.367142	 -1.923334	 0.037122
