%nprocshared=1
%mem=2GB
#HF/6-31G* nosymm scf=tight 

Mol

0 1
H	 -2.379989	 0.494399	 -0.866936
C	 -1.692896	 0.969458	 -0.174430
N	 -0.528168	 0.128977	 -0.000000
H	 -2.205770	 1.082888	 0.773794
H	 -1.465279	 1.965763	 -0.562802
C	 0.248044	 -0.037491	 -1.209632
H	 0.051760	 0.500974	 0.725486
H	 0.998722	 0.743888	 -1.266824
H	 -0.398417	 0.061950	 -2.074060
H	 0.763621	 -0.999315	 -1.275517
