%nprocshared=1
%mem=2GB
#HF/6-31G* nosymm scf=tight 

Mol

0 1
H	 -2.798360	 -0.862255	 -0.071053
N	 -1.863561	 -0.715187	 0.256814
C	 -1.344686	 0.554728	 -0.219830
H	 -1.300452	 -1.461917	 -0.101532
C	 -2.141004	 1.020641	 -1.420637
H	 -1.361191	 1.345450	 0.531495
H	 -0.311613	 0.415457	 -0.523383
O	 -1.931077	 0.113630	 -2.464835
H	 -3.201397	 1.068441	 -1.173814
H	 -1.812867	 2.015556	 -1.713393
C	 -2.540797	 0.468300	 -3.664844
H	 -2.311323	 -0.301162	 -4.389391
H	 -3.621747	 0.537857	 -3.556723
H	 -2.168750	 1.422107	 -4.033141

8 5 3 6 F

5 8 11 13 F

11 8 5 3 F

