%nprocshared=1
%mem=2GB
#HF/6-31G* nosymm scf=tight 

Mol

0 1
O	 0.008206	 0.892448	 -4.668596
C	 -1.012810	 1.098369	 -4.085880
C	 -1.106772	 0.894171	 -2.583955
C	 -2.247495	 1.600433	 -4.800625
C	 -1.047154	 -0.600408	 -2.229242
H	 -2.054221	 1.306704	 -2.254619
H	 -0.309795	 1.428706	 -2.074910
C	 0.149006	 -1.302371	 -2.876593
H	 -1.004166	 -0.690246	 -1.149675
H	 -1.965793	 -1.089826	 -2.549114
C	 0.075323	 -1.399736	 -4.404711
H	 0.247240	 -2.302033	 -2.457363
H	 1.057485	 -0.767858	 -2.606759
C	 -1.053427	 -2.288511	 -4.930067
H	 1.023541	 -1.787350	 -4.768483
H	 -0.024340	 -0.400645	 -4.824201
H	 -0.984148	 -3.291584	 -4.518035
H	 -1.004790	 -2.372263	 -6.011279
H	 -2.032469	 -1.894716	 -4.678683
H	 -3.023107	 0.839757	 -4.768042
H	 -2.011843	 1.828880	 -5.830705
H	 -2.644401	 2.483482	 -4.308188

6 3 2 1 F

6 3 5 8 F

12 8 11 15 F

