%nprocshared=1
%mem=2GB
#HF/6-31G* nosymm scf=tight opt=ModRedundant

Mol

0 1
H	 3.930000	 0.348000	 -0.108000
N	 3.130000	 -0.254000	 -0.076000
C	 1.903000	 0.524000	 0.012000
H	 3.236000	 -0.834000	 0.735000
C	 0.683000	 -0.390000	 -0.038000
H	 1.879000	 1.200000	 -0.838000
H	 1.853000	 1.147000	 0.908000
C	 -0.642000	 0.371000	 0.018000
H	 0.736000	 -0.984000	 -0.945000
H	 0.731000	 -1.092000	 0.794000
C	 -1.866000	 -0.545000	 -0.031000
H	 -0.689000	 1.075000	 -0.811000
H	 -0.680000	 0.970000	 0.927000
C	 -3.188000	 0.221000	 0.021000
H	 -1.831000	 -1.143000	 -0.938000
H	 -1.823000	 -1.247000	 0.799000
H	 -3.277000	 0.907000	 -0.816000
H	 -4.037000	 -0.456000	 -0.015000
H	 -3.269000	 0.803000	 0.935000
