%nprocshared=1
%mem=2GB
#HF/6-31G* nosymm scf=tight 

Mol

0 1
H	 -0.944757	 -0.000069	 1.678017
O	 -0.042387	 -0.000390	 1.388199
C	 -0.001487	 0.000018	 -0.026623
C	 1.432387	 -0.250835	 -0.497491
C	 -0.947765	 -1.074062	 -0.566581
C	 -0.470591	 1.390913	 -0.438659
H	 1.505843	 -0.215100	 -1.579723
H	 1.779116	 -1.230006	 -0.175141
H	 2.099975	 0.495527	 -0.081213
H	 -0.969701	 -1.073328	 -1.651757
H	 -0.633273	 -2.063772	 -0.243315
H	 -1.954548	 -0.905445	 -0.200749
H	 -0.474920	 1.495737	 -1.518815
H	 0.184815	 2.146473	 -0.020256
H	 -1.473578	 1.572582	 -0.069325
