%nprocshared=1
%mem=2GB
#HF/6-31G* nosymm scf=tight 

Mol

0 1
O	 -0.389695	 0.092980	 2.453461
C	 -0.833093	 0.610524	 1.479901
C	 -1.689737	 1.847648	 1.474314
O	 -0.632575	 0.154573	 0.251549
H	 -2.647636	 1.627754	 1.017121
H	 -1.833848	 2.193421	 2.486988
H	 -1.213112	 2.620317	 0.882227
C	 0.160891	 -1.019931	 0.106212
C	 1.589627	 -0.672828	 0.480843
H	 0.089836	 -1.367806	 -0.916050
H	 -0.238459	 -1.792301	 0.749618
C	 2.289103	 0.246167	 -0.522442
H	 2.141086	 -1.606904	 0.566443
H	 1.592927	 -0.215956	 1.467005
C	 1.436167	 1.455547	 -0.903101
H	 3.231768	 0.587266	 -0.099198
H	 2.537156	 -0.319253	 -1.414702
H	 1.953222	 2.090521	 -1.615488
H	 1.199116	 2.060312	 -0.032272
H	 0.498206	 1.146689	 -1.355776

16 12 9 8 F

2 4 8 10 F

1 2 4 8 F

