%nprocshared=1
%mem=2GB
#HF/6-31G* nosymm scf=tight 

Mol

0 1
H	 -2.798360	 -0.862255	 -0.071053
N	 -1.863561	 -0.715187	 0.256814
C	 -1.344686	 0.554728	 -0.219830
H	 -1.300452	 -1.461917	 -0.101532
C	 -0.446844	 0.329320	 -1.418248
H	 -2.120534	 1.268236	 -0.500845
H	 -0.756444	 1.008344	 0.571993
O	 0.671145	 -0.398997	 -0.997841
H	 -0.982412	 -0.220365	 -2.191973
H	 -0.139495	 1.287921	 -1.830383
C	 1.627545	 -0.605435	 -1.987919
H	 2.435801	 -1.174929	 -1.549631
H	 1.217705	 -1.165457	 -2.826602
H	 2.022196	 0.336918	 -2.362125

8 5 3 6 F

5 8 11 13 F

11 8 5 3 F

