%nprocshared=1
%mem=2GB
#HF/6-31G* nosymm scf=tight 

Mol

0 1
H	 -2.789804	 0.059507	 0.930262
O	 -1.914736	 -0.279873	 1.049207
C	 -1.157531	 -0.054823	 -0.112709
C	 -0.767052	 1.406824	 -0.302023
H	 -0.266644	 -0.660173	 -0.005256
H	 -1.690466	 -0.417268	 -0.990999
C	 -0.189498	 2.064385	 0.953729
H	 -0.044450	 1.468636	 -1.111587
H	 -1.651124	 1.955059	 -0.623303
C	 -1.230751	 2.236617	 2.063209
H	 0.224415	 3.033908	 0.690921
H	 0.637298	 1.461927	 1.330281
C	 -2.087810	 0.996018	 2.340165
H	 -0.729515	 2.539825	 2.980636
H	 -1.891211	 3.058045	 1.793488
C	 -3.034785	 0.600176	 1.203932
H	 -1.422463	 0.159640	 2.544131
H	 -2.663251	 1.152826	 3.251272
C	 -4.465221	 1.099239	 1.418936
H	 -3.044660	 -0.484477	 1.106250
H	 -2.666261	 0.987989	 0.257311
C	 -5.411106	 0.710962	 0.283063
H	 -4.847259	 0.703375	 2.357459
H	 -4.456195	 2.181939	 1.526468
H	 -5.467273	 -0.368187	 0.171231
H	 -6.416738	 1.077069	 0.465559
H	 -5.076338	 1.123259	 -0.664726

14 10 7 4 F

14 10 13 16 F

10 7 4 8 F

8 4 3 2 F

20 16 19 22 F

4 3 2 1 F

