%nprocshared=1
%mem=2GB
#HF/6-31G* nosymm scf=tight 

Mol

0 1
H	 1.447540	 -2.009041	 -0.896327
C	 0.595268	 -2.484845	 -0.396281
C	 -0.700401	 -1.718761	 -0.469045
O	 0.732310	 -3.530759	 0.150904
C	 -0.558097	 -0.297372	 0.091132
H	 -1.457692	 -2.280331	 0.065399
H	 -0.996399	 -1.665745	 -1.516139
C	 -1.850991	 0.512573	 -0.019058
H	 -0.253851	 -0.351813	 1.133842
H	 0.238815	 0.223972	 -0.436115
C	 -3.096943	 -0.368295	 -0.099594
H	 -1.800724	 1.150330	 -0.898172
H	 -1.931651	 1.177355	 0.838044
H	 -3.060452	 -1.020287	 -0.967456
H	 -3.996858	 0.233488	 -0.175704
H	 -3.191959	 -0.995686	 0.782074

6 3 5 9 F

4 2 3 6 F

