%nprocshared=1
%mem=2GB
#HF/6-31G* nosymm scf=tight 

Mol

0 1
H	 1.022861	 1.078468	 1.629680
C	 1.147003	 0.580507	 0.659975
C	 0.065331	 0.871482	 -0.349150
O	 2.084386	 -0.123329	 0.465948
C	 -1.339775	 0.583656	 0.198860
H	 0.267931	 0.293952	 -1.243759
H	 0.140695	 1.926959	 -0.606925
C	 -1.808407	 -0.848507	 -0.061364
H	 -2.036183	 1.280685	 -0.256307
H	 -1.360094	 0.788874	 1.267089
H	 -1.828843	 -1.063152	 -1.125336
H	 -2.808409	 -1.004529	 0.329750
H	 -1.153967	 -1.577789	 0.406873

6 3 2 4 F

