%nprocshared=1
%mem=2GB
#HF/6-31G* nosymm scf=tight 

Mol

0 1
H	 -2.798360	 -0.862255	 -0.071053
N	 -1.863561	 -0.715187	 0.256814
C	 -1.344686	 0.554728	 -0.219830
H	 -1.300452	 -1.461917	 -0.101532
C	 -2.458125	 1.363981	 -0.851099
H	 -0.879719	 1.159427	 0.560008
H	 -0.588984	 0.359459	 -0.974525
O	 -2.899674	 0.686596	 -1.992708
H	 -3.280704	 1.486320	 -0.146802
H	 -2.086824	 2.350964	 -1.118000
C	 -3.870897	 1.365129	 -2.723384
H	 -4.132120	 0.749172	 -3.573123
H	 -4.765615	 1.541162	 -2.128846
H	 -3.501126	 2.323332	 -3.082447

8 5 3 6 F

5 8 11 13 F

11 8 5 3 F

