%nprocshared=1
%mem=2GB
#HF/6-31G* nosymm scf=tight opt=ModRedundant

Mol

0 1
O	 -2.399000	 1.394000	 -0.294000
C	 -2.179000	 0.236000	 -0.105000
C	 -0.963000	 -0.435000	 -0.719000
C	 -3.077000	 -0.611000	 0.768000
C	 0.307000	 -0.110000	 0.085000
H	 -0.856000	 -0.060000	 -1.731000
H	 -1.105000	 -1.511000	 -0.770000
C	 1.558000	 -0.745000	 -0.527000
H	 0.410000	 0.968000	 0.132000
H	 0.192000	 -0.460000	 1.109000
C	 2.844000	 -0.512000	 0.276000
H	 1.693000	 -0.367000	 -1.539000
H	 1.397000	 -1.817000	 -0.620000
C	 3.299000	 0.947000	 0.335000
H	 3.637000	 -1.108000	 -0.168000
H	 2.710000	 -0.891000	 1.287000
H	 3.431000	 1.355000	 -0.663000
H	 4.249000	 1.032000	 0.854000
H	 2.586000	 1.576000	 0.857000
H	 -3.570000	 -1.366000	 0.162000
H	 -3.823000	 0.010000	 1.244000
H	 -2.497000	 -1.135000	 1.522000
