%nprocshared=1
%mem=2GB
#HF/6-31G* nosymm scf=tight 

Mol

0 1
O	 1.193023	 1.330472	 -0.955394
C	 0.140502	 1.681556	 -1.381988
C	 -1.132561	 0.871331	 -1.354793
O	 -0.054281	 2.863688	 -1.952602
C	 -1.412532	 0.227344	 -0.000452
H	 -1.943418	 1.530676	 -1.652331
H	 -1.057793	 0.122680	 -2.138812
C	 -2.905329	 -0.010381	 0.232806
H	 -1.013148	 0.859629	 0.786449
H	 -0.875114	 -0.713477	 0.066939
C	 -3.668193	 1.279787	 0.530311
H	 -3.337917	 -0.491077	 -0.642336
H	 -3.037843	 -0.705983	 1.059032
H	 -3.583532	 1.983301	 -0.292827
H	 -4.723570	 1.083517	 0.691353
H	 -3.281729	 1.766523	 1.421027
C	 1.065166	 3.726192	 -2.042424
H	 1.444631	 3.960080	 -1.058153
H	 0.709774	 4.621320	 -2.528624
H	 1.850932	 3.269393	 -2.626729

9 5 8 12 F

1 2 3 6 F

1 2 4 17 F

