%nprocshared=1
%mem=2GB
#HF/6-31G* nosymm scf=tight 

Mol

0 1
H	 -2.420451	 0.282915	 2.186750
C	 -2.267793	 -0.494873	 1.441174
O	 -0.992736	 -0.427252	 0.888913
H	 -2.366030	 -1.460546	 1.917585
H	 -3.040150	 -0.398689	 0.679176
C	 -0.719715	 0.768384	 0.229244
C	 0.719720	 0.768376	 -0.229267
H	 -1.372099	 0.879348	 -0.637808
H	 -0.886831	 1.619727	 0.885972
O	 1.392611	 -0.295398	 0.366430
H	 0.750534	 0.687200	 -1.313918
H	 1.185043	 1.714359	 0.050526
C	 2.706965	 -0.449871	 -0.062409
H	 2.756559	 -0.644779	 -1.131878
H	 3.305899	 0.433456	 0.155466
H	 3.125548	 -1.294566	 0.467107

7 10 13 14 F

2 3 6 7 F

