%nprocshared=1
%mem=2GB
#HF/6-31G* nosymm scf=tight 

Mol

0 1
H	 -3.420663	 1.227371	 -1.044276
O	 -3.452007	 0.283848	 -0.965577
C	 -3.181085	 -0.079926	 0.364119
C	 -1.765924	 0.277073	 0.805136
H	 -3.327791	 -1.152017	 0.410903
H	 -3.905698	 0.375695	 1.036898
C	 -0.677594	 -0.417312	 -0.014550
H	 -1.637766	 1.358238	 0.744969
H	 -1.659588	 0.017670	 1.857098
C	 0.198644	 -1.352676	 0.821201
H	 -0.058028	 0.334416	 -0.493874
H	 -1.146125	 -0.983757	 -0.817676
C	 -0.618028	 -2.286035	 1.718961
H	 0.829135	 -1.936159	 0.154533
H	 0.873014	 -0.761157	 1.439209
C	 -1.385373	 -1.583836	 2.845129
H	 0.040948	 -3.038507	 2.149346
H	 -1.331503	 -2.826930	 1.100734
C	 -2.408876	 -2.465501	 3.563122
H	 -1.900808	 -0.723157	 2.425787
H	 -0.677203	 -1.188506	 3.570671
H	 -3.123361	 -2.885337	 2.859994
H	 -2.966813	 -1.890178	 4.295615
H	 -1.937973	 -3.289911	 4.088253

20 16 13 17 F

17 13 10 7 F

13 10 7 11 F

1 2 3 5 F

7 4 3 2 F

