%nprocshared=1
%mem=2GB
#HF/6-31G* nosymm scf=tight 

Mol

0 1
H	 -1.836216	 1.387520	 -0.000064
C	 -1.301823	 0.443321	 -0.000031
O	 -0.003969	 0.658512	 0.000451
O	 -1.829879	 -0.616434	 -0.000857
C	 0.643524	 0.766635	 -1.266928
C	 0.611485	 -0.602311	 -1.911350
H	 1.655694	 1.114544	 -1.112690
H	 0.123265	 1.503800	 -1.862925
H	 1.130183	 -1.329180	 -1.296820
H	 1.096260	 -0.563908	 -2.881273
H	 -0.409613	 -0.938189	 -2.050755

7 5 3 2 F

