%nprocshared=1
%mem=2GB
#HF/6-31G* nosymm scf=tight 

Mol

0 1
O	 0.391030	 1.298905	 0.000133
C	 0.503002	 0.111612	 0.000005
C	 -0.702327	 -0.811998	 -0.000075
C	 1.863306	 -0.554493	 0.000030
C	 -0.360435	 -2.261991	 -0.320669
H	 -1.182870	 -0.733944	 0.973453
H	 -1.424740	 -0.418169	 -0.712665
H	 0.339430	 -2.664464	 0.401428
H	 -1.256631	 -2.873459	 -0.306626
H	 0.095414	 -2.345890	 -1.299639
H	 1.974395	 -1.189404	 -0.874166
H	 2.638695	 0.198920	 -0.000196
H	 1.974487	 -1.188655	 0.874727
