%nprocshared=1
%mem=2GB
#HF/6-31G* nosymm scf=tight 

Mol

0 1
H	 -2.646374	 -0.642757	 1.268656
C	 -2.083525	 -0.384536	 0.393091
O	 -0.807605	 -0.127164	 0.768327
F	 -2.118945	 -1.383102	 -0.486752
F	 -2.621877	 0.670592	 -0.209486
C	 -0.609356	 0.735051	 1.831328
C	 -1.482066	 0.237431	 2.976278
Cl	 -1.046517	 2.393491	 1.388971
H	 0.413465	 0.745114	 2.165258
F	 -2.755532	 0.408057	 2.691127
F	 -1.206739	 0.940953	 4.056412
F	 -1.274874	 -1.029261	 3.241863

10 7 6 9 F

9 6 3 2 F

