%nprocshared=1
%mem=2GB
#HF/6-31G* nosymm scf=tight 

Mol

0 1
H	 2.332609	 0.878551	 -1.051851
C	 2.357710	 0.000000	 -0.417167
C	 1.175432	 0.000000	 0.532082
H	 3.291263	 0.000000	 0.136880
H	 2.332609	 -0.878551	 -1.051851
O	 0.000000	 0.000000	 -0.221444
H	 1.206604	 0.877321	 1.177902
H	 1.206604	 -0.877321	 1.177902
C	 -1.175432	 0.000000	 0.532082
C	 -1.834764	 -1.358791	 0.398581
H	 -1.845961	 0.783946	 0.180562
H	 -0.950665	 0.212305	 1.577143
H	 -2.068448	 -1.564930	 -0.639785
H	 -2.754710	 -1.394146	 0.973853
H	 -1.171897	 -2.137373	 0.758754
