%nprocshared=1
%mem=2GB
#HF/6-31G* nosymm scf=tight 

Mol

0 1
H	 -3.457960	 0.166880	 1.449720
O	 -3.367910	 -0.300316	 2.267454
C	 -3.043259	 -1.643282	 2.012310
C	 -1.609705	 -1.833855	 1.529264
H	 -3.184960	 -2.163733	 2.950780
H	 -3.740919	 -2.074362	 1.295219
C	 -1.314720	 -1.174099	 0.179978
H	 -0.935821	 -1.437562	 2.284379
H	 -1.414703	 -2.902721	 1.459510
C	 -2.484036	 -1.287962	 -0.802139
H	 -0.429907	 -1.630592	 -0.254862
H	 -1.080166	 -0.120938	 0.335465
C	 -3.855076	 -0.933457	 -0.214845
H	 -2.288455	 -0.655843	 -1.666443
H	 -2.523429	 -2.308758	 -1.176472
C	 -4.367128	 -1.900755	 0.855957
H	 -3.793951	 0.062656	 0.218561
H	 -4.584969	 -0.867679	 -1.020305
C	 -5.686341	 -1.448714	 1.485855
H	 -3.614335	 -2.003786	 1.636212
H	 -4.502779	 -2.892225	 0.430648
C	 -6.202976	 -2.415778	 2.550534
H	 -5.555304	 -0.463061	 1.927223
H	 -6.437137	 -1.335843	 0.706464
H	 -5.487866	 -2.525080	 3.361024
H	 -7.137459	 -2.066954	 2.979133
H	 -6.379554	 -3.402639	 2.131858

14 10 7 4 F

14 10 13 16 F

8 4 3 2 F

10 13 16 20 F

20 16 19 22 F

4 3 2 1 F

