%nprocshared=1
%mem=2GB
#HF/6-31G* nosymm scf=tight 

Mol

0 1
O	 1.507392	 1.886737	 0.451817
C	 0.698130	 1.867817	 1.322366
C	 -0.605121	 1.107168	 1.293758
O	 0.844003	 2.528621	 2.463941
C	 -0.823008	 0.326187	 0.001381
H	 -0.615863	 0.448886	 2.158203
H	 -1.403767	 1.825119	 1.459378
C	 -2.149452	 -0.435131	 -0.000098
H	 0.000292	 -0.366742	 -0.140796
H	 -0.789563	 1.010936	 -0.840230
C	 -3.368779	 0.488503	 -0.000883
H	 -2.193746	 -1.087250	 -0.871175
H	 -2.195311	 -1.087803	 0.870418
C	 -3.346354	 1.505125	 -1.141597
H	 -3.422266	 1.013619	 0.950187
H	 -4.273627	 -0.111280	 -0.069069
H	 -2.469560	 2.143689	 -1.080920
H	 -4.223185	 2.144600	 -1.115337
H	 -3.327221	 1.009791	 -2.108339
C	 2.030517	 3.285138	 2.621489
H	 2.899411	 2.645253	 2.565820
H	 1.963028	 3.740126	 3.597351
H	 2.100375	 4.046065	 1.857541

15 11 8 12 F

1 2 3 6 F

9 5 3 6 F

1 2 4 20 F

