%nprocshared=1
%mem=2GB
#HF/6-31G* nosymm scf=tight 

Mol

0 1
H	 -3.042581	 -0.665861	 0.004336
O	 -2.245037	 -1.176175	 0.000806
C	 -1.162163	 -0.365336	 0.001020
C	 -0.807346	 0.400826	 -1.094622
C	 -0.398376	 -0.327555	 1.161206
H	 -1.396839	 0.370517	 -1.995484
C	 0.320323	 1.206003	 -1.017400
H	 -0.701718	 -0.937472	 1.992531
C	 0.725216	 0.476687	 1.237670
H	 0.600500	 1.801305	 -1.868373
C	 1.083318	 1.248146	 0.131963
C	 1.542895	 0.536906	 2.506872
H	 1.956190	 1.875464	 0.175494
H	 2.605366	 0.514893	 2.289014
H	 1.316669	 -0.294979	 3.163112
H	 1.340126	 1.454354	 3.052327
