%nprocshared=1
%mem=2GB
#HF/6-31G* nosymm scf=tight 

Mol

0 1
H	 4.343539	 -0.175945	 -1.875439
C	 3.551171	 -0.699172	 -1.349952
C	 2.264884	 0.125518	 -1.332194
H	 3.399260	 -1.652645	 -1.847989
H	 3.903130	 -0.904972	 -0.342967
C	 1.124154	 -0.574694	 -0.600870
H	 1.944170	 0.341690	 -2.346492
H	 2.459539	 1.085759	 -0.857391
N	 -0.085695	 0.223332	 -0.630528
H	 0.912168	 -1.521445	 -1.090450
H	 1.438034	 -0.817890	 0.419773
C	 -1.217365	 -0.386708	 0.039277
H	 0.097623	 1.121039	 -0.223643
C	 -2.452633	 0.504241	 -0.042481
H	 -1.425441	 -1.333747	 -0.451416
H	 -1.004093	 -0.621892	 1.087412
C	 -3.758029	 -0.289423	 -0.010781
H	 -2.394220	 1.093569	 -0.952170
H	 -2.440793	 1.210787	 0.785871
H	 -3.816659	 -0.981993	 -0.845726
H	 -4.617837	 0.370165	 -0.069296
H	 -3.847478	 -0.867502	 0.904682

10 6 9 12 F

