%nprocshared=1
%mem=2GB
#HF/6-31G* nosymm scf=tight 

Mol

0 1
H	 -9.592018	 2.028294	 -2.658794
C	 -8.950164	 1.714561	 -1.826197
C	 -7.650263	 2.468269	 -1.704573
O	 -9.297423	 0.839559	 -1.101260
C	 -6.449670	 1.538618	 -1.479673
H	 -7.522834	 3.076071	 -2.592856
H	 -7.748192	 3.139312	 -0.852067
C	 -6.466114	 0.838920	 -0.118258
H	 -6.439950	 0.792488	 -2.268647
H	 -5.527253	 2.106850	 -1.589298
C	 -6.253274	 1.803461	 1.050150
H	 -5.693438	 0.073043	 -0.102385
H	 -7.410910	 0.315692	 0.016400
C	 -7.144331	 3.045428	 0.963640
H	 -6.440631	 1.275052	 1.981500
H	 -5.208996	 2.111886	 1.077387
C	 -8.476090	 2.930578	 1.714174
H	 -7.340708	 3.275648	 -0.082366
H	 -6.595566	 3.895780	 1.362978
C	 -9.441535	 1.892099	 1.140506
H	 -8.962502	 3.902772	 1.700334
H	 -8.281521	 2.704290	 2.760528
H	 -9.641833	 2.084110	 0.089658
H	 -9.050397	 0.883621	 1.223924
H	 -10.390864	 1.916855	 1.666962

6 3 5 8 F

6 3 2 4 F

3 5 8 12 F

12 8 11 14 F

20 17 14 18 F

