%nprocshared=1
%mem=2GB
#HF/6-31G* nosymm scf=tight 

Mol

0 1
H	 -3.475380	 -0.383787	 -0.789925
O	 -3.114115	 -0.194748	 0.065275
C	 -1.776835	 -0.066256	 0.008374
C	 -1.068715	 -0.203868	 -1.181849
C	 -1.111226	 0.213140	 1.195374
H	 -1.592288	 -0.420430	 -2.097427
C	 0.302973	 -0.061436	 -1.180222
H	 -1.679551	 0.314671	 2.100344
C	 0.260901	 0.352756	 1.180861
H	 0.861974	 -0.164999	 -2.091207
C	 0.984182	 0.218375	 0.000000
H	 0.777191	 0.569273	 2.100441
C	 2.452467	 0.370529	 0.000000
O	 3.228994	 -0.533774	 0.000000
H	 2.809473	 1.405765	 0.000000

5 3 2 1 F

