%nprocshared=1
%mem=2GB
#HF/6-31G* nosymm scf=tight 

Mol

0 1
H	 -3.135461	 -1.215070	 0.001379
O	 -2.310168	 -0.871793	 -0.309793
C	 -2.026376	 0.340750	 0.341611
C	 -0.673256	 0.843270	 -0.132153
H	 -2.792215	 1.080697	 0.115987
H	 -2.013526	 0.200402	 1.421792
C	 0.486613	 -0.083066	 0.235839
H	 -0.715586	 0.970948	 -1.210718
H	 -0.508072	 1.829858	 0.297090
C	 1.840406	 0.433480	 -0.254303
H	 0.300215	 -1.068318	 -0.178947
H	 0.519509	 -0.203625	 1.318070
C	 2.858624	 -0.684076	 -0.477852
H	 1.700406	 0.983710	 -1.182400
H	 2.239583	 1.145942	 0.465071
H	 2.503011	 -1.394561	 -1.218554
H	 3.807686	 -0.288789	 -0.827099
H	 3.046867	 -1.232589	 0.440957

10 7 4 8 F

2 3 4 8 F

1 2 3 4 F

