%nprocshared=1
%mem=2GB
#HF/6-31G* nosymm scf=tight 

Mol

0 1
H	 2.143914	 -1.074081	 -0.898409
C	 1.365093	 -0.351834	 -1.082397
O	 0.464886	 -0.454746	 -0.000158
H	 0.874950	 -0.584883	 -2.020199
H	 1.800555	 0.639011	 -1.133964
C	 -0.590998	 0.343045	 0.000118
O	 -1.699443	 -0.054298	 0.000227
H	 -0.340329	 1.404368	 0.000207
