%nprocshared=1
%mem=2GB
#HF/6-31G* nosymm scf=tight 

Mol

0 1
H	 -2.693057	 0.547913	 0.616906
C	 -2.516837	 0.141987	 -0.371788
C	 -1.259937	 -0.719708	 -0.392877
H	 -2.427195	 0.976532	 -1.056463
H	 -3.382166	 -0.445836	 -0.659790
C	 -0.000005	 0.033229	 -0.000001
H	 -1.100824	 -1.145970	 -1.381502
H	 -1.364361	 -1.570904	 0.277164
C	 1.290528	 -0.768786	 0.000276
O	 -0.022752	 1.189728	 0.291851
C	 2.545731	 0.095645	 -0.000061
H	 1.275672	 -1.427874	 -0.865626
H	 1.275566	 -1.427086	 0.866768
H	 2.577157	 0.734767	 -0.874036
H	 3.433520	 -0.528139	 0.000137
H	 2.577172	 0.735117	 0.873581
