%nprocshared=1
%mem=2GB
#HF/6-31G* nosymm scf=tight 

Mol

0 1
H	 -3.457960	 0.166880	 1.449720
O	 -3.367910	 -0.300316	 2.267454
C	 -3.043259	 -1.643282	 2.012310
C	 -1.609705	 -1.833855	 1.529264
H	 -3.184960	 -2.163733	 2.950780
H	 -3.740919	 -2.074362	 1.295219
C	 -1.232956	 -0.953105	 0.335443
H	 -0.936686	 -1.631986	 2.358517
H	 -1.478441	 -2.881041	 1.261798
C	 -1.971857	 -1.347119	 -0.946585
H	 -0.160970	 -1.015259	 0.170068
H	 -1.454402	 0.088275	 0.569602
C	 -3.479625	 -1.568071	 -0.778783
H	 -1.802031	 -0.585980	 -1.705975
H	 -1.530528	 -2.263574	 -1.332641
C	 -3.862221	 -2.776317	 0.080425
H	 -3.908145	 -0.674178	 -0.330293
H	 -3.940389	 -1.663366	 -1.760849
C	 -5.371165	 -2.893761	 0.305663
H	 -3.360614	 -2.704563	 1.044454
H	 -3.503936	 -3.692901	 -0.381970
C	 -5.756305	 -4.102643	 1.157683
H	 -5.735668	 -1.986155	 0.781979
H	 -5.874857	 -2.955782	 -0.656799
H	 -5.293960	 -4.053561	 2.139544
H	 -6.831092	 -4.157100	 1.300865
H	 -5.437932	 -5.030040	 0.689776

14 10 7 4 F

14 10 13 16 F

10 7 4 8 F

10 13 16 20 F

20 16 19 22 F

4 3 2 1 F

