%nprocshared=1
%mem=2GB
#HF/6-31G* nosymm scf=tight 

Mol

0 1
H	 -2.499100	 -0.730091	 -0.745082
O	 -2.347518	 -0.290803	 0.079804
C	 -1.184022	 0.487508	 -0.006784
C	 0.062599	 -0.378592	 0.031606
H	 -1.176523	 1.099369	 -0.904519
H	 -1.187323	 1.153111	 0.844927
O	 0.927354	 0.067658	 -0.964808
H	 -0.203045	 -1.424924	 -0.131499
H	 0.525449	 -0.309304	 1.014232
C	 2.137822	 -0.617822	 -1.028254
H	 1.985769	 -1.675393	 -1.235747
H	 2.717706	 -0.183253	 -1.830618
H	 2.695884	 -0.525182	 -0.098859

1 2 3 5 F

10 7 4 8 F

4 7 10 13 F

