%nprocshared=1
%mem=2GB
#HF/6-31G* nosymm scf=tight 

Mol

0 1
H	 -3.571158	 0.540474	 0.139285
O	 -3.106200	 -0.271124	 -0.011510
C	 -1.775819	 -0.076055	 -0.001477
C	 -1.021144	 -0.171926	 1.163974
C	 -1.166244	 0.229684	 -1.211852
H	 -1.501425	 -0.409310	 2.097938
C	 0.340871	 0.038462	 1.114271
H	 -1.769757	 0.297996	 -2.096937
C	 0.196905	 0.437368	 -1.245429
H	 0.935386	 -0.032310	 2.005699
C	 0.966231	 0.345427	 -0.089873
H	 0.669781	 0.674324	 -2.183140
C	 2.424237	 0.570332	 -0.141334
O	 3.061329	 0.668551	 -1.143943
H	 2.914575	 0.646025	 0.834886

7 11 13 14 F

