%nprocshared=1
%mem=2GB
#HF/6-31G* nosymm scf=tight 

Mol

0 1
H	 -1.836216	 1.387520	 -0.000064
C	 -1.301823	 0.443321	 -0.000031
O	 -0.003969	 0.658512	 0.000451
O	 -1.829879	 -0.616434	 -0.000857
C	 0.679524	 0.549468	 -1.247801
C	 0.662355	 -0.909710	 -1.648831
H	 1.687778	 0.921072	 -1.126751
H	 0.178256	 1.172390	 -1.975807
H	 1.161563	 -1.519318	 -0.904383
H	 1.174574	 -1.036875	 -2.596825
H	 -0.355213	 -1.266942	 -1.757588

7 5 3 2 F

