%nprocshared=1
%mem=2GB
#HF/6-31G* nosymm scf=tight 

Mol

0 1
H	 1.397251	 -3.765548	 -1.387913
O	 0.893423	 -3.611667	 -2.174594
C	 -0.464105	 -3.480691	 -1.847557
C	 -0.659339	 -2.541736	 -0.670309
H	 -1.048898	 -3.131948	 -2.694171
H	 -0.820575	 -4.466939	 -1.585462
O	 -0.043959	 -1.331029	 -0.978982
H	 -0.222033	 -2.975331	 0.231211
H	 -1.722994	 -2.406094	 -0.483697
C	 -0.381609	 -0.813417	 -2.226865
H	 0.366496	 -0.106062	 -2.579876
H	 -0.435693	 -1.641239	 -2.920182
H	 -1.346371	 -0.311084	 -2.200645

8 4 3 5 F

1 2 3 5 F

10 7 4 8 F

