%nprocshared=1
%mem=2GB
#HF/6-31G* nosymm scf=tight 

Mol

0 1
H	 2.332609	 0.878551	 -1.051851
C	 2.357710	 0.000000	 -0.417167
C	 1.175432	 0.000000	 0.532082
H	 3.291263	 0.000000	 0.136880
H	 2.332609	 -0.878551	 -1.051851
O	 0.000000	 0.000000	 -0.221444
H	 1.206604	 0.877321	 1.177902
H	 1.206604	 -0.877321	 1.177902
C	 -1.175432	 0.000000	 0.532082
C	 -2.070336	 -1.116705	 0.031110
H	 -1.679847	 0.961652	 0.439685
H	 -0.944060	 -0.142897	 1.587446
H	 -2.309514	 -0.968295	 -1.015826
H	 -2.996412	 -1.145761	 0.596821
H	 -1.572695	 -2.074393	 0.133545
