%nprocshared=1
%mem=2GB
#HF/6-31G* nosymm scf=tight 

Mol

0 1
H	 -2.646374	 -0.642757	 1.268656
C	 -2.083525	 -0.384536	 0.393091
O	 -0.807605	 -0.127164	 0.768327
F	 -2.118945	 -1.383102	 -0.486752
F	 -2.621877	 0.670592	 -0.209486
C	 0.084052	 0.273579	 -0.209957
C	 -0.139460	 1.763868	 -0.431864
Cl	 -0.179880	 -0.627274	 -1.711961
H	 1.108443	 0.125208	 0.083954
F	 -1.310160	 1.974089	 -0.995254
F	 0.793491	 2.216304	 -1.245708
F	 -0.080691	 2.444879	 0.686503

10 7 6 9 F

6 3 2 4 F

