%nprocshared=1
%mem=2GB
#HF/6-31G* nosymm scf=tight 

Mol

0 1
H	 -2.741723	 0.469542	 0.436598
C	 -2.472852	 0.212691	 -0.580792
C	 -1.213443	 -0.644969	 -0.613442
H	 -2.326545	 1.138465	 -1.123766
H	 -3.304100	 -0.320345	 -1.030431
C	 -0.000005	 0.033229	 -0.000001
H	 -0.961474	 -0.921828	 -1.635330
H	 -1.373014	 -1.584953	 -0.088691
C	 1.290528	 -0.768786	 0.000276
O	 -0.057319	 1.134162	 0.455900
C	 2.545731	 0.095645	 -0.000061
H	 1.275672	 -1.427874	 -0.865626
H	 1.275566	 -1.427086	 0.866768
H	 2.577157	 0.734767	 -0.874036
H	 3.433520	 -0.528139	 0.000137
H	 2.577172	 0.735117	 0.873581
