%nprocshared=1
%mem=2GB
#HF/6-31G* nosymm scf=tight 

Mol

0 1
H	 2.332609	 0.878551	 -1.051851
C	 2.357710	 0.000000	 -0.417167
C	 1.175432	 0.000000	 0.532082
H	 3.291263	 0.000000	 0.136880
H	 2.332609	 -0.878551	 -1.051851
O	 0.000000	 0.000000	 -0.221444
H	 1.206604	 0.877321	 1.177902
H	 1.206604	 -0.877321	 1.177902
C	 -1.175432	 0.000000	 0.532082
C	 -2.343494	 -0.273903	 -0.394991
H	 -1.302052	 0.961652	 1.029012
H	 -1.121579	 -0.760830	 1.310532
H	 -2.403604	 0.489297	 -1.162597
H	 -3.276677	 -0.281030	 0.159633
H	 -2.222879	 -1.235600	 -0.880682
