%nprocshared=1
%mem=2GB
#HF/6-31G* nosymm scf=tight 

Mol

0 1
H	 0.776244	 0.383156	 2.328976
C	 -0.184382	 0.421652	 1.833980
O	 0.000000	 0.000000	 0.521119
H	 -0.880968	 -0.224281	 2.366171
H	 -0.561490	 1.442304	 1.875781
C	 -1.165642	 0.000000	 -0.238270
H	 -1.228672	 0.883184	 -0.872070
H	 -2.003012	 0.000000	 0.445920
H	 -1.228672	 -0.883184	 -0.872070
