%nprocshared=1
%mem=2GB
#HF/6-31G* nosymm scf=tight 

Mol

0 1
H	 3.121558	 -0.353544	 2.682784
O	 2.277123	 -0.529646	 2.293140
C	 1.455499	 0.602949	 2.414606
C	 0.112984	 0.285351	 1.780151
H	 1.319606	 0.867049	 3.462504
H	 1.908808	 1.460113	 1.918499
C	 0.198102	 0.111031	 0.262842
H	 -0.579566	 1.085499	 2.026859
H	 -0.277377	 -0.618212	 2.240226
C	 1.331804	 -0.827780	 -0.158768
H	 -0.752017	 -0.266307	 -0.107377
H	 0.346614	 1.082489	 -0.206980
C	 2.723619	 -0.410569	 0.329459
H	 1.342964	 -0.912588	 -1.244120
H	 1.116806	 -1.824343	 0.220779
C	 3.243875	 0.895854	 -0.272975
H	 3.424222	 -1.207124	 0.091250
H	 2.714788	 -0.329854	 1.414619
H	 3.251977	 0.848779	 -1.358681
H	 2.637085	 1.747371	 0.016682
H	 4.259473	 1.094070	 0.055697

2 3 4 8 F

8 4 7 10 F

16 13 10 14 F

1 2 3 5 F

