%nprocshared=1
%mem=2GB
#HF/6-31G* nosymm scf=tight 

Mol

0 1
H	 -2.444412	 -1.769197	 1.502321
C	 -1.910696	 -1.079486	 0.875566
C	 -2.585950	 -0.132439	 0.124512
C	 -0.534730	 -1.128886	 0.810553
H	 -3.659064	 -0.077770	 0.161660
C	 -1.886021	 0.749048	 -0.677865
H	 0.016738	 -1.848612	 1.378580
C	 0.154804	 -0.237046	 -0.000077
H	 -2.428317	 1.476669	 -1.252824
C	 -0.495867	 0.731709	 -0.771551
N	 1.611208	 -0.370857	 -0.000034
C	 0.166395	 1.743187	 -1.681084
O	 2.274126	 0.622059	 -0.008063
O	 2.068510	 -1.474748	 0.007823
H	 0.738954	 1.261144	 -2.461430
H	 -0.596241	 2.359625	 -2.140178
H	 0.847169	 2.382307	 -1.135928
