%nprocshared=1
%mem=2GB
#HF/6-31G* nosymm scf=tight 
prop=(read,field)

Mol

0 1
H	 2.759614	 0.304550	 0.820211
N	 2.332924	 -0.069571	 -0.000000
C	 0.936910	 -0.007079	 -0.000000
H	 2.759614	 0.304550	 -0.820211
C	 0.227337	 -0.002121	 -1.198267
C	 0.227337	 -0.002121	 1.198267
H	 0.761798	 -0.014658	 -2.132680
C	 -1.156105	 0.010458	 -1.192360
H	 0.761798	 -0.014658	 2.132680
C	 -1.156105	 0.010458	 1.192360
H	 -1.684562	 0.014914	 -2.129421
C	 -1.861856	 0.017995	 -0.000000
H	 -1.684562	 0.014914	 2.129421
H	 -2.936474	 0.028386	 -0.000000

@grid.dat /N
