%nprocshared=1
%mem=2GB
#HF/6-31G* nosymm scf=tight 

Mol

0 1
H	 3.838448	 -0.971677	 -2.915512
C	 3.174219	 -1.292418	 -2.119474
C	 1.909809	 -0.435327	 -2.079163
H	 2.934377	 -2.337904	 -2.291701
H	 3.724791	 -1.229506	 -1.185045
C	 0.947913	 -0.853068	 -0.971622
H	 1.388247	 -0.491755	 -3.029520
H	 2.186735	 0.608264	 -1.939089
N	 -0.250970	 -0.038208	 -0.983510
H	 0.650887	 -1.886958	 -1.125930
H	 1.464343	 -0.820523	 -0.006418
C	 -1.217365	 -0.386708	 0.039277
H	 0.001745	 0.927180	 -0.887594
C	 -2.452633	 0.504241	 -0.042481
H	 -1.510785	 -1.421364	 -0.116768
H	 -0.793973	 -0.334192	 1.047922
C	 -3.758029	 -0.289423	 -0.010781
H	 -2.394220	 1.093569	 -0.952170
H	 -2.440793	 1.210787	 0.785871
H	 -3.816659	 -0.981993	 -0.845726
H	 -4.617837	 0.370165	 -0.069296
H	 -3.847478	 -0.867502	 0.904682

10 6 9 12 F

