%nprocshared=1
%mem=2GB
#HF/6-31G* nosymm scf=tight 

Mol

0 1
O	 -0.641271	 -0.408333	 -2.213514
C	 -0.186010	 -0.763744	 -1.174205
C	 1.028723	 -1.645642	 -1.010054
O	 -0.698257	 -0.426125	 0.001050
C	 1.650702	 -2.059134	 -2.337884
H	 0.725600	 -2.511462	 -0.428917
H	 1.740081	 -1.107186	 -0.390942
H	 0.942847	 -2.610162	 -2.945070
H	 2.516514	 -2.689469	 -2.165078
H	 1.966821	 -1.193178	 -2.906666
C	 -1.853104	 0.406779	 0.000512
C	 -3.066105	 -0.499277	 -0.000959
H	 -1.828410	 1.043074	 -0.873618
H	 -1.829857	 1.042383	 0.875188
H	 -3.071820	 -1.133106	 -0.880383
H	 -3.972708	 0.097145	 -0.001528
H	 -3.073405	 -1.133813	 0.877999

4 2 3 6 F

11 4 2 3 F

