%nprocshared=1
%mem=2GB
#HF/6-31G* nosymm scf=tight 

Mol

0 1
H	 -3.003711	 -0.050209	 1.146763
O	 -2.342290	 -0.613256	 1.521690
C	 -1.480658	 -1.070237	 0.510348
C	 -0.536021	 0.008749	 -0.007509
H	 -0.908329	 -1.875382	 0.952902
H	 -2.052221	 -1.495218	 -0.313962
C	 0.166708	 0.802776	 1.096376
H	 0.205926	 -0.460949	 -0.648028
H	 -1.110022	 0.689920	 -0.633525
C	 -0.796005	 1.689115	 1.891615
H	 0.944683	 1.418355	 0.653452
H	 0.663145	 0.112698	 1.778786
C	 -2.087810	 0.996018	 2.340165
H	 -0.279418	 2.086455	 2.763456
H	 -1.061172	 2.548414	 1.279250
C	 -3.034785	 0.600176	 1.203932
H	 -1.819572	 0.099905	 2.895905
H	 -2.615855	 1.639565	 3.042200
C	 -4.465221	 1.099239	 1.418936
H	 -3.044660	 -0.484477	 1.106250
H	 -2.666261	 0.987989	 0.257311
C	 -5.411106	 0.710962	 0.283063
H	 -4.847259	 0.703375	 2.357459
H	 -4.456195	 2.181939	 1.526468
H	 -5.467273	 -0.368187	 0.171231
H	 -6.416738	 1.077069	 0.465559
H	 -5.076338	 1.123259	 -0.664726

14 10 7 4 F

14 10 13 16 F

10 7 4 8 F

8 4 3 2 F

20 16 19 22 F

4 3 2 1 F

