%nprocshared=1
%mem=2GB
#HF/6-31G* nosymm scf=tight 

Mol

0 1
O	 2.544561	 1.850230	 -0.436504
C	 1.838777	 1.723109	 -1.389639
C	 0.569680	 0.890692	 -1.352025
C	 2.167518	 2.390316	 -2.709457
C	 0.291004	 0.242674	 0.000989
H	 -0.258633	 1.532446	 -1.649411
H	 0.643551	 0.134968	 -2.132938
C	 -0.994322	 -0.586602	 0.000262
H	 0.231019	 1.016052	 0.760210
H	 1.134073	 -0.383189	 0.276087
C	 -2.259874	 0.272531	 0.000494
H	 -1.004862	 -1.240012	 -0.870939
H	 -1.005220	 -1.241071	 0.870675
C	 -3.545761	 -0.543779	 -0.141437
H	 -2.202858	 0.996680	 -0.810293
H	 -2.301498	 0.850874	 0.921788
C	 -4.805576	 0.321409	 -0.140603
H	 -3.505838	 -1.121415	 -1.062614
H	 -3.604630	 -1.266989	 0.669341
H	 -4.792750	 1.033227	 -0.961151
H	 -5.700045	 -0.285300	 -0.243217
H	 -4.892873	 0.885747	 0.783544
H	 1.363265	 3.056339	 -3.008133
H	 3.085857	 2.952964	 -2.615040
H	 2.277291	 1.646185	 -3.492945

9 5 8 12 F

15 11 14 18 F

1 2 3 6 F

9 5 3 6 F

