%nprocshared=1
%mem=2GB
#HF/6-31G* nosymm scf=tight 

Mol

0 1
O	 -0.644987	 -1.652990	 1.664992
C	 -1.514987	 -1.440192	 0.882411
C	 -2.775474	 -2.260464	 0.784449
O	 -1.481751	 -0.454642	 0.000584
H	 -3.283566	 -2.233162	 1.740984
H	 -3.433286	 -1.897333	 0.008654
H	 -2.505502	 -3.290827	 0.586090
C	 -0.334255	 0.388708	 0.000906
C	 0.891947	 -0.504646	 0.000751
H	 -0.365390	 1.025305	 -0.873475
H	 -0.365484	 1.024911	 0.875569
C	 0.838286	 -1.556101	 -1.109219
H	 0.972990	 -0.989855	 0.969484
H	 1.777328	 0.114301	 -0.115286
C	 0.957944	 -2.986846	 -0.581035
H	 -0.094692	 -1.455303	 -1.661014
H	 1.637529	 -1.370852	 -1.824742
C	 0.902992	 -4.037064	 -1.689587
H	 0.159795	 -3.173778	 0.133870
H	 1.890810	 -3.089989	 -0.031314
H	 -0.033874	 -3.981388	 -2.236576
H	 0.990040	 -5.040274	 -1.284336
H	 1.710321	 -3.897189	 -2.402796

13 9 8 10 F

2 4 8 10 F

19 15 12 16 F

1 2 4 8 F

