%nprocshared=1
%mem=2GB
#HF/6-31G* nosymm scf=tight 

Mol

0 1
H	 -0.291579	 -1.110831	 -0.823855
N	 -0.626943	 -0.667432	 -0.000092
C	 -1.979713	 -0.158776	 0.000050
C	 0.205700	 -0.572214	 1.064711
H	 -2.520245	 -0.492427	 -0.879443
H	 -1.934741	 0.918111	 -0.004428
H	 -2.517790	 -0.485056	 0.883818
C	 1.579666	 -1.173021	 0.845091
O	 -0.108932	 -0.055838	 2.101329
H	 2.085533	 -0.680272	 0.020681
H	 2.162318	 -1.050747	 1.745792
H	 1.502585	 -2.229492	 0.607889

3 2 4 9 F

