%nprocshared=1
%mem=2GB
#HF/6-31G* nosymm scf=tight 

Mol

0 1
H	 -1.680419	 0.306597	 2.258331
C	 -1.230043	 0.145168	 1.298900
C	 -1.939842	 0.407365	 0.080310
C	 0.024815	 -0.311966	 1.200017
H	 -2.949572	 0.775277	 0.126475
C	 -1.355489	 0.197774	 -1.107994
H	 0.623302	 -0.532570	 2.063470
N	 0.640212	 -0.532897	 -0.000111
H	 -1.854883	 0.382477	 -2.039039
C	 0.010035	 -0.299627	 -1.215322
C	 2.010177	 -1.032049	 0.000042
O	 0.570785	 -0.500897	 -2.263776
H	 2.187698	 -1.635381	 -0.882279
H	 2.677579	 -0.189247	 -0.001871
H	 2.188882	 -1.632203	 0.884288
