%nprocshared=1
%mem=2GB
#HF/6-31G* nosymm scf=tight 

Mol

0 1
H	 -0.490617	 -1.640443	 0.149310
N	 -0.626943	 -0.667432	 -0.000092
C	 -1.979713	 -0.158776	 0.000050
C	 0.463526	 0.113824	 -0.191622
H	 -2.520245	 -0.492427	 -0.879443
H	 -1.934741	 0.918111	 -0.004428
H	 -2.517790	 -0.485056	 0.883818
C	 1.784362	 -0.628355	 -0.152281
O	 0.399697	 1.297551	 -0.378517
H	 1.818577	 -1.389977	 -0.925014
H	 2.586194	 0.077125	 -0.310580
H	 1.920677	 -1.117634	 0.807073

3 2 4 9 F

