%nprocshared=1
%mem=2GB
#HF/6-31G* nosymm scf=tight 

Mol

0 1
H	 -0.384417	 -1.357773	 -0.672600
N	 -0.626943	 -0.667432	 -0.000092
C	 -1.979713	 -0.158776	 0.000050
C	 0.325755	 -0.252874	 0.869779
H	 -2.520245	 -0.492427	 -0.879443
H	 -1.934741	 0.918111	 -0.004428
H	 -2.517790	 -0.485056	 0.883818
C	 1.674978	 -0.919497	 0.690344
O	 0.127974	 0.574320	 1.716447
H	 2.068026	 -0.726742	 -0.302990
H	 2.359261	 -0.526889	 1.427442
H	 1.590945	 -1.994555	 0.814939

3 2 4 9 F

