%nprocshared=1
%mem=2GB
#HF/6-31G* nosymm scf=tight 

Mol

0 1
O	 0.992616	 0.697279	 -4.703627
C	 0.142502	 1.331576	 -4.156446
C	 -0.062897	 1.226187	 -2.655443
C	 -0.746320	 2.290217	 -4.916959
C	 -0.650749	 -0.143021	 -2.277499
H	 -0.753092	 2.009713	 -2.362150
H	 0.873902	 1.386125	 -2.129273
C	 0.149006	 -1.302371	 -2.876593
H	 -0.674175	 -0.214029	 -1.195929
H	 -1.682806	 -0.205578	 -2.619099
C	 0.075323	 -1.399736	 -4.404711
H	 -0.195437	 -2.238081	 -2.440093
H	 1.192113	 -1.196001	 -2.585971
C	 -1.053427	 -2.288511	 -4.930067
H	 1.023541	 -1.787350	 -4.768483
H	 -0.024340	 -0.400645	 -4.824201
H	 -0.984148	 -3.291584	 -4.518035
H	 -1.004790	 -2.372263	 -6.011279
H	 -2.032469	 -1.894716	 -4.678683
H	 -1.771848	 1.930780	 -4.897891
H	 -0.412958	 2.370031	 -5.942280
H	 -0.742205	 3.270937	 -4.450081

6 3 2 1 F

6 3 5 8 F

3 5 8 12 F

