%nprocshared=1
%mem=2GB
#HF/6-31G* nosymm scf=tight 

Mol

0 1
O	 2.278721	 -0.766000	 -4.672408
C	 2.199368	 0.323384	 -4.191388
C	 1.939239	 0.501322	 -2.705798
C	 2.384369	 1.573511	 -5.022250
C	 0.501935	 0.089952	 -2.347923
H	 2.084934	 1.549812	 -2.469692
H	 2.647885	 -0.078695	 -2.121480
C	 0.149006	 -1.302371	 -2.876593
H	 0.398447	 0.126353	 -1.269336
H	 -0.199374	 0.816312	 -2.755738
C	 0.075323	 -1.399736	 -4.404711
H	 -0.801987	 -1.616594	 -2.450444
H	 0.892539	 -2.011962	 -2.519537
C	 -1.053427	 -2.288511	 -4.930067
H	 1.023541	 -1.787350	 -4.768483
H	 -0.024340	 -0.400645	 -4.824201
H	 -0.984148	 -3.291584	 -4.518035
H	 -1.004790	 -2.372263	 -6.011279
H	 -2.032469	 -1.894716	 -4.678683
H	 1.448864	 2.125070	 -5.065567
H	 2.692297	 1.309794	 -6.024456
H	 3.122251	 2.229930	 -4.570091

6 3 2 1 F

6 3 5 8 F

3 5 8 12 F

