%nprocshared=1
%mem=2GB
#HF/6-31G* nosymm scf=tight 

Mol

0 1
H	 -2.698709	 -0.000305	 0.034435
C	 -1.693833	 0.000034	 0.434417
O	 -0.828952	 -0.000968	 -0.659236
H	 -1.574200	 0.882896	 1.055746
H	 -1.574147	 -0.881698	 1.057355
C	 0.559449	 -0.000018	 -0.420814
C	 1.374465	 -0.101542	 -1.708587
C	 1.002166	 1.169891	 0.455697
H	 0.713305	 -0.913027	 0.142012
H	 1.000412	 -0.909777	 -2.327771
H	 2.414578	 -0.305335	 -1.474347
H	 1.344432	 0.816181	 -2.287420
H	 0.370006	 1.242137	 1.334111
H	 2.025974	 1.020685	 0.784362
H	 0.964326	 2.116926	 -0.073013

6 3 2 1 F

