%nprocshared=1
%mem=2GB
#HF/6-31G* nosymm scf=tight 

Mol

0 1
O	 3.225979	 0.970355	 -0.599647
C	 2.701189	 0.057885	 -0.047330
C	 1.245376	 -0.013843	 0.345420
O	 3.347903	 -1.046386	 0.304773
C	 0.455112	 1.231400	 -0.050772
H	 0.838542	 -0.913825	 -0.103701
H	 1.208210	 -0.175333	 1.419774
C	 -0.998893	 1.219485	 0.433193
H	 0.482531	 1.345121	 -1.130325
H	 0.957290	 2.103070	 0.354729
C	 -1.883438	 0.145884	 -0.207175
H	 -1.431207	 2.195402	 0.224832
H	 -1.019646	 1.105716	 1.516076
C	 -2.415243	 0.555501	 -1.582093
H	 -1.313419	 -0.777044	 -0.302579
H	 -2.726204	 -0.081266	 0.441763
C	 -3.427677	 1.700799	 -1.523787
H	 -2.876422	 -0.306643	 -2.060900
H	 -1.581159	 0.846541	 -2.218724
C	 -2.958279	 2.869668	 -0.658275
H	 -3.627177	 2.056390	 -2.532448
H	 -4.374212	 1.325707	 -1.140174
H	 -3.696800	 3.665110	 -0.636678
H	 -2.030685	 3.289896	 -1.036657
H	 -2.782916	 2.553351	 0.366159
C	 4.728119	 -1.109107	 -0.004993
H	 4.882018	 -1.033965	 -1.071845
H	 5.068212	 -2.067527	 0.355250
H	 5.265056	 -0.311663	 0.488280

21 17 14 11 F

17 14 11 15 F

6 3 5 9 F

11 8 5 9 F

2 4 26 27 F

1 2 4 26 F

6 3 2 1 F

