%nprocshared=1
%mem=2GB
#HF/6-31G* nosymm scf=tight 

Mol

0 1
H	 -2.752777	 -0.642593	 1.143473
C	 -2.703777	 -0.456385	 0.072461
O	 -1.389815	 -0.302011	 -0.357670
H	 -3.120200	 -1.306520	 -0.450035
H	 -3.305093	 0.423501	 -0.152591
C	 -0.719715	 0.768384	 0.229244
C	 0.719720	 0.768376	 -0.229267
H	 -1.187508	 1.710812	 -0.058324
H	 -0.750327	 0.696067	 1.314526
O	 1.392611	 -0.295398	 0.366430
H	 0.750534	 0.687200	 -1.313918
H	 1.185043	 1.714359	 0.050526
C	 2.706965	 -0.449871	 -0.062409
H	 2.756559	 -0.644779	 -1.131878
H	 3.305899	 0.433456	 0.155466
H	 3.125548	 -1.294566	 0.467107

7 10 13 14 F

2 3 6 7 F

