%nprocshared=1
%mem=2GB
#HF/6-31G* nosymm scf=tight 

Mol

0 1
H	 -3.161837	 0.500524	 -0.000234
C	 -2.367097	 -0.232926	 -0.000000
O	 -1.158440	 0.455814	 -0.000122
H	 -2.468853	 -0.861886	 -0.882833
H	 -2.468942	 -0.861421	 0.883154
C	 -1.058687	 1.440634	 0.983775
C	 -0.173158	 2.561362	 0.467565
H	 -0.639587	 1.017252	 1.897560
H	 -2.048996	 1.824535	 1.232402
C	 1.302974	 2.168539	 0.427516
H	 -0.514004	 2.840059	 -0.524812
H	 -0.312938	 3.430848	 1.102509
H	 1.468297	 1.313982	 -0.222733
H	 1.911330	 2.986303	 0.056018
H	 1.670699	 1.908240	 1.416165

6 3 2 4 F

11 7 6 8 F

