%nprocshared=1
%mem=2GB
#HF/6-31G* nosymm scf=tight 

Mol

0 1
H	 -3.862222	 -1.908212	 -0.835154
C	 -2.792518	 -1.799826	 -0.862904
C	 -2.069928	 -2.341250	 -1.915459
C	 -2.140934	 -1.119382	 0.153643
H	 -2.576493	 -2.868727	 -2.703194
C	 -0.694529	 -2.201478	 -1.950445
H	 -2.702735	 -0.700358	 0.968753
C	 -0.764211	 -0.978234	 0.120713
H	 -0.119233	 -2.613877	 -2.757063
C	 -0.037141	 -1.519715	 -0.932819
H	 -0.255870	 -0.452461	 0.905234
C	 1.445565	 -1.396970	 -1.017522
O	 1.970282	 -0.730723	 0.000018
O	 2.101128	 -1.847563	 -1.904123
C	 3.377318	 -0.566646	 -0.000065
H	 3.695437	 -0.028981	 -0.881264
H	 3.789299	 -1.563704	 0.000236
H	 3.695516	 -0.028316	 0.880770

10 12 13 15 F

13 12 10 6 F

