%nprocshared=1
%mem=2GB
#HF/6-31G* nosymm scf=tight 

Mol

0 1
H	 -2.273092	 1.173159	 0.000295
O	 -1.438904	 1.618192	 0.000114
C	 -0.409536	 0.736003	 0.000030
C	 0.868677	 1.272073	 -0.000233
C	 -0.609332	 -0.642773	 0.000222
H	 0.977786	 2.340757	 -0.000379
C	 1.967535	 0.434206	 -0.000274
C	 0.513624	 -1.461283	 0.000188
C	 -2.004755	 -1.225698	 0.000362
H	 2.956591	 0.856417	 -0.000470
C	 1.795532	 -0.940709	 -0.000059
H	 0.376171	 -2.528734	 0.000319
H	 -2.571249	 -0.925042	 -0.878633
H	 -1.967321	 -2.307629	 0.000606
H	 -2.571274	 -0.924580	 0.879215
H	 2.645631	 -1.598380	 -0.000096
