%nprocshared=1
%mem=2GB
#HF/6-31G* nosymm scf=tight 

Mol

0 1
O	 1.066834	 -2.032293	 1.712165
C	 0.275803	 -1.645901	 0.914452
C	 -1.147444	 -2.120194	 0.804999
O	 0.550821	 -0.724572	 0.000672
H	 -1.823175	 -1.281819	 0.928282
H	 -1.339790	 -2.865528	 1.562212
H	 -1.318951	 -2.538157	 -0.180127
C	 0.839981	 -1.184356	 -1.307481
H	 0.875321	 -0.356956	 -2.001395
H	 0.037691	 -1.856981	 -1.567587
H	 1.786570	 -1.704902	 -1.326043

2 4 8 9 F

