%nprocshared=1
%mem=2GB
#HF/6-31G* nosymm scf=tight 

Mol

0 1
H	 0.701234	 -1.242030	 -0.413750
C	 0.676994	 -0.330249	 -1.023481
C	 0.065331	 0.871482	 -0.349150
O	 1.117075	 -0.338198	 -2.127105
C	 -1.339775	 0.583656	 0.198860
H	 0.054298	 1.692176	 -1.057142
H	 0.722102	 1.147749	 0.474555
C	 -1.808407	 -0.848507	 -0.061364
H	 -2.036183	 1.280685	 -0.256307
H	 -1.360094	 0.788874	 1.267089
H	 -1.828843	 -1.063152	 -1.125336
H	 -2.808409	 -1.004529	 0.329750
H	 -1.153967	 -1.577789	 0.406873

6 3 2 4 F

