%nprocshared=1
%mem=2GB
#HF/6-31G* nosymm scf=tight 

Mol

0 1
H	 -2.698709	 -0.000305	 0.034435
C	 -1.693833	 0.000034	 0.434417
O	 -0.828952	 -0.000968	 -0.659236
H	 -1.574200	 0.882896	 1.055746
H	 -1.574147	 -0.881698	 1.057355
C	 0.500930	 -0.423871	 -0.466703
C	 1.343114	 0.612520	 0.274605
C	 0.588306	 -1.808066	 0.173085
H	 0.883666	 -0.500831	 -1.477457
H	 1.217458	 1.591218	 -0.175848
H	 2.393628	 0.344813	 0.219935
H	 1.078608	 0.681828	 1.325032
H	 -0.060311	 -2.504571	 -0.347139
H	 1.606069	 -2.180949	 0.113233
H	 0.307139	 -1.794878	 1.221232

9 6 3 2 F

