%nprocshared=1
%mem=2GB
#HF/6-31G* nosymm scf=tight 

Mol

0 1
O	 2.367903	 2.123611	 0.053204
C	 1.276545	 2.593175	 0.159060
C	 0.022809	 1.736988	 0.153732
C	 1.071204	 4.086890	 0.306737
C	 0.291004	 0.242674	 0.000989
H	 -0.521911	 1.938121	 1.075260
H	 -0.622592	 2.096107	 -0.646826
C	 -0.994322	 -0.586602	 0.000262
H	 0.941966	 -0.085912	 0.804984
H	 0.840963	 0.072160	 -0.919129
C	 -2.259874	 0.272531	 0.000494
H	 -1.004862	 -1.240012	 -0.870939
H	 -1.005220	 -1.241071	 0.870675
C	 -3.549786	 -0.549746	 -0.000374
H	 -2.250389	 0.926680	 -0.869574
H	 -2.250838	 0.925513	 0.871430
C	 -4.809590	 0.315458	 -0.000369
H	 -3.560515	 -1.202009	 -0.871156
H	 -3.561123	 -1.202955	 0.869711
H	 -4.844746	 0.956611	 -0.876632
H	 -5.706986	 -0.295590	 -0.001609
H	 -4.845960	 0.954827	 0.877144
H	 0.553136	 4.308267	 1.235293
H	 2.028483	 4.589274	 0.298852
H	 0.455970	 4.466500	 -0.503829

15 11 8 12 F

15 11 14 18 F

1 2 3 6 F

9 5 3 6 F

