%nprocshared=1
%mem=2GB
#HF/6-31G* nosymm scf=tight 

Mol

0 1
O	 0.610822	 1.328943	 -0.336456
C	 0.478372	 0.158086	 -0.177419
C	 1.601187	 -0.851350	 -0.153081
O	 -0.698257	 -0.426125	 0.001050
C	 2.974150	 -0.222852	 -0.355392
H	 1.388914	 -1.592072	 -0.918273
H	 1.543603	 -1.378844	 0.794389
H	 3.032313	 0.288003	 -1.308811
H	 3.743001	 -0.987722	 -0.329755
H	 3.188576	 0.502971	 0.419544
C	 -1.853104	 0.406779	 0.000512
C	 -3.066105	 -0.499277	 -0.000959
H	 -1.828410	 1.043074	 -0.873618
H	 -1.829857	 1.042383	 0.875188
H	 -3.071820	 -1.133106	 -0.880383
H	 -3.972708	 0.097145	 -0.001528
H	 -3.073405	 -1.133813	 0.877999

4 2 3 6 F

11 4 2 3 F

