%nprocshared=1
%mem=2GB
#HF/6-31G* nosymm scf=tight 

Mol

0 1
H	 -2.240291	 0.559484	 0.604969
C	 -2.008299	 -0.205926	 -0.129530
O	 -0.774054	 0.001095	 -0.743181
H	 -2.752932	 -0.160639	 -0.912984
H	 -2.076115	 -1.178578	 0.348530
C	 0.342127	 -0.779652	 -0.354456
C	 1.399942	 -0.444900	 -1.403731
C	 0.840680	 -0.376628	 1.037021
C	 0.014038	 -2.275386	 -0.401932
H	 1.615134	 0.617626	 -1.391038
H	 1.039407	 -0.703447	 -2.392944
H	 2.320978	 -0.987686	 -1.217348
H	 1.001879	 0.695290	 1.082141
H	 1.780211	 -0.872647	 1.258038
H	 0.139004	 -0.649272	 1.817963
H	 -0.405053	 -2.537441	 -1.367717
H	 0.913805	 -2.862583	 -0.249773
H	 -0.694638	 -2.563509	 0.367090

2 3 6 7 F

