%nprocshared=1
%mem=2GB
#HF/6-31G* nosymm scf=tight 

Mol

0 1
O	 -0.389695	 0.092980	 2.453461
C	 -0.833093	 0.610524	 1.479901
C	 -1.689737	 1.847648	 1.474314
O	 -0.632575	 0.154573	 0.251549
H	 -2.647636	 1.627754	 1.017121
H	 -1.833848	 2.193421	 2.486988
H	 -1.213112	 2.620317	 0.882227
C	 0.160891	 -1.019931	 0.106212
C	 1.589627	 -0.672828	 0.480843
H	 0.089836	 -1.367806	 -0.916050
H	 -0.238459	 -1.792301	 0.749618
C	 2.303568	 -1.762255	 1.283238
H	 1.561050	 0.247804	 1.060113
H	 2.147336	 -0.454702	 -0.426152
C	 2.144796	 -3.148410	 0.660047
H	 3.361373	 -1.517908	 1.357009
H	 1.917034	 -1.772860	 2.297062
H	 2.658583	 -3.902789	 1.247387
H	 2.553831	 -3.177321	 -0.346001
H	 1.098238	 -3.433179	 0.599213

16 12 9 8 F

2 4 8 10 F

1 2 4 8 F

