%nprocshared=1
%mem=2GB
#HF/6-31G* nosymm scf=tight 

Mol

0 1
H	 -3.420663	 1.227371	 -1.044276
O	 -3.452007	 0.283848	 -0.965577
C	 -3.181085	 -0.079926	 0.364119
C	 -1.765924	 0.277073	 0.805136
H	 -3.327791	 -1.152017	 0.410903
H	 -3.905698	 0.375695	 1.036898
C	 -0.677594	 -0.417312	 -0.014550
H	 -1.637766	 1.358238	 0.744969
H	 -1.659588	 0.017670	 1.857098
C	 0.738335	 -0.034840	 0.421385
H	 -0.814977	 -0.178223	 -1.064632
H	 -0.802730	 -1.495410	 0.071702
C	 1.822126	 -0.773636	 -0.368337
H	 0.864591	 1.039430	 0.309931
H	 0.860571	 -0.248118	 1.482599
C	 1.879680	 -2.285172	 -0.119136
H	 2.793210	 -0.335941	 -0.142253
H	 1.654461	 -0.605388	 -1.430127
C	 2.763305	 -3.058180	 -1.099988
H	 0.868800	 -2.681850	 -0.174431
H	 2.221791	 -2.469268	 0.897364
H	 2.452211	 -2.883072	 -2.126485
H	 2.701837	 -4.126256	 -0.914859
H	 3.807166	 -2.774051	 -1.017585

20 16 13 17 F

17 13 10 7 F

11 7 4 3 F

1 2 3 5 F

7 4 3 2 F

