%nprocshared=1
%mem=2GB
#HF/6-31G* nosymm scf=tight 

Mol

0 1
H	 -1.054576	 0.443394	 1.021335
O	 -0.979597	 0.946934	 0.223078
C	 0.336816	 0.878985	 -0.255908
C	 0.851439	 -0.549588	 -0.252765
H	 0.422069	 1.296031	 -1.255490
H	 0.943048	 1.482353	 0.405062
O	 -0.043959	 -1.331029	 -0.978982
H	 0.935487	 -0.915221	 0.772530
H	 1.846669	 -0.580336	 -0.692259
C	 -0.381609	 -0.813417	 -2.226865
H	 0.366496	 -0.106062	 -2.579876
H	 -0.435693	 -1.641239	 -2.920182
H	 -1.346371	 -0.311084	 -2.200645

8 4 3 5 F

1 2 3 5 F

10 7 4 8 F

