%nprocshared=1
%mem=2GB
#HF/6-31G* nosymm scf=tight 

Mol

0 1
H	 -0.733874	 0.621373	 3.183069
O	 -0.551373	 0.352432	 2.294219
C	 -0.237106	 1.478602	 1.514384
C	 0.031547	 1.023609	 0.088541
H	 0.648655	 1.976705	 1.904524
H	 -1.051060	 2.199659	 1.540002
C	 -1.134819	 0.293262	 -0.585751
H	 0.897468	 0.367688	 0.103975
H	 0.308190	 1.897767	 -0.498431
C	 -1.917817	 -0.639439	 0.339494
H	 -0.758119	 -0.268455	 -1.433105
H	 -1.813832	 1.041889	 -0.986690
H	 -2.777680	 -1.057197	 -0.174994
H	 -1.310268	 -1.471279	 0.680599
H	 -2.283753	 -0.111424	 1.216626

2 3 4 8 F

1 2 3 4 F

