%nprocshared=1
%mem=2GB
#HF/6-31G* nosymm scf=tight 

Mol

0 1
H	 1.609364	 -0.263970	 -2.584702
C	 0.880113	 -0.480602	 -1.812568
C	 1.322923	 0.120767	 -0.479465
H	 -0.073470	 -0.073194	 -2.133613
H	 0.779482	 -1.559462	 -1.745281
C	 0.306652	 -0.176050	 0.621399
H	 1.433961	 1.196027	 -0.573878
H	 2.284834	 -0.282500	 -0.185586
N	 -1.068537	 -0.011044	 0.085269
H	 0.372515	 -1.192590	 0.973735
H	 0.391664	 0.520566	 1.441230
O	 -1.656956	 -0.997225	 -0.235017
O	 -1.478635	 1.104830	 -0.018026

12 9 6 3 F

