%nprocshared=1
%mem=2GB
#HF/6-31G* nosymm scf=tight 

Mol

0 1
H	 2.591676	 2.013956	 0.335017
O	 3.341076	 1.666752	 -0.126416
C	 3.569581	 0.339145	 0.272707
C	 2.539767	 -0.640285	 -0.279495
H	 4.553106	 0.084646	 -0.100901
H	 3.608576	 0.269204	 1.359154
C	 1.115811	 -0.397273	 0.226630
H	 2.556196	 -0.582511	 -1.364741
H	 2.852081	 -1.648031	 -0.010655
C	 0.115918	 -1.429151	 -0.302766
H	 0.797950	 0.599468	 -0.066350
H	 1.109961	 -0.420744	 1.316472
C	 -0.068647	 -1.425057	 -1.824692
H	 0.422095	 -2.422623	 0.019907
H	 -0.850479	 -1.244543	 0.161665
C	 1.162087	 -1.861406	 -2.624300
H	 -0.894932	 -2.088876	 -2.070482
H	 -0.374349	 -0.430816	 -2.146978
C	 0.897204	 -1.942593	 -4.129186
H	 1.496374	 -2.834167	 -2.266388
H	 1.985408	 -1.173028	 -2.449427
C	 2.125880	 -2.371737	 -4.930344
H	 0.084064	 -2.641175	 -4.314318
H	 0.553779	 -0.974070	 -4.486826
H	 2.474512	 -3.352216	 -4.618348
H	 1.905753	 -2.421764	 -5.992265
H	 2.946238	 -1.672296	 -4.795586

14 10 13 16 F

10 7 4 8 F

8 4 3 2 F

10 13 16 20 F

20 16 19 22 F

4 3 2 1 F

