%nprocshared=1
%mem=2GB
#HF/6-31G* nosymm scf=tight 

Mol

0 1
H	 -2.088479	 -1.165625	 -0.451426
C	 -1.940821	 -0.124734	 -0.182941
N	 -0.528168	 0.128977	 -0.000000
H	 -2.466711	 0.053826	 0.747969
H	 -2.403158	 0.488195	 -0.961291
C	 0.248044	 -0.037491	 -1.209632
H	 -0.394511	 1.051551	 0.363348
H	 0.998722	 0.743888	 -1.266824
H	 -0.398417	 0.061950	 -2.074060
H	 0.763621	 -0.999315	 -1.275517
