%nprocshared=1
%mem=2GB
#HF/6-31G* nosymm scf=tight 

Mol

0 1
O	 2.392142	 2.085908	 0.205600
C	 1.352584	 2.474896	 0.642367
C	 0.096700	 1.622051	 0.623725
C	 1.219064	 3.856891	 1.248517
C	 0.291004	 0.242674	 0.000989
H	 -0.261976	 1.534737	 1.648477
H	 -0.675915	 2.178105	 0.094318
C	 -0.994322	 -0.586602	 0.000262
H	 1.070553	 -0.284982	 0.541371
H	 0.655924	 0.359043	 -1.014609
C	 -2.259874	 0.272531	 0.000494
H	 -1.004862	 -1.240012	 -0.870939
H	 -1.005220	 -1.241071	 0.870675
C	 -3.549786	 -0.549746	 -0.000374
H	 -2.250389	 0.926680	 -0.869574
H	 -2.250838	 0.925513	 0.871430
C	 -4.809590	 0.315458	 -0.000369
H	 -3.560515	 -1.202009	 -0.871156
H	 -3.561123	 -1.202955	 0.869711
H	 -4.844746	 0.956611	 -0.876632
H	 -5.706986	 -0.295590	 -0.001609
H	 -4.845960	 0.954827	 0.877144
H	 0.888423	 3.787677	 2.280750
H	 2.171632	 4.366604	 1.208019
H	 0.474784	 4.436274	 0.710003

15 11 8 12 F

15 11 14 18 F

1 2 3 6 F

9 5 3 6 F

