%nprocshared=1
%mem=2GB
#HF/6-31G* nosymm scf=tight 

Mol

0 1
O	 -0.277720	 1.288666	 -0.406763
C	 -0.442272	 0.127700	 -0.215828
C	 -1.776657	 -0.566088	 -0.190468
O	 0.550821	 -0.724572	 0.000672
H	 -1.800302	 -1.341882	 -0.946953
H	 -2.561745	 0.152602	 -0.372162
H	 -1.923427	 -1.041587	 0.772309
C	 1.863949	 -0.193559	 -0.000319
H	 2.028859	 0.409284	 -0.881648
H	 2.526261	 -1.045082	 -0.000003
H	 2.029520	 0.410555	 0.880008

8 4 2 1 F

