%nprocshared=1
%mem=2GB
#HF/6-31G* nosymm scf=tight 

Mol

0 1
H	 -0.347231	 -3.648786	 0.692879
O	 -0.369343	 -2.810072	 0.254730
C	 -1.154083	 -1.910933	 0.995217
C	 -1.166759	 -0.579625	 0.265008
H	 -2.170523	 -2.287472	 1.101870
H	 -0.747128	 -1.782585	 1.997342
C	 0.198102	 0.111031	 0.262842
H	 -1.909472	 0.060277	 0.733658
H	 -1.501624	 -0.751864	 -0.754147
C	 1.331804	 -0.827780	 -0.158768
H	 0.162617	 0.970553	 -0.402091
H	 0.409802	 0.501060	 1.257618
C	 2.723619	 -0.410569	 0.329459
H	 1.342964	 -0.912588	 -1.244120
H	 1.116806	 -1.824343	 0.220779
C	 3.243875	 0.895854	 -0.272975
H	 3.424222	 -1.207124	 0.091250
H	 2.714788	 -0.329854	 1.414619
H	 3.251977	 0.848779	 -1.358681
H	 2.637085	 1.747371	 0.016682
H	 4.259473	 1.094070	 0.055697

2 3 4 8 F

8 4 7 10 F

16 13 10 14 F

1 2 3 5 F

