%nprocshared=1
%mem=2GB
#HF/6-31G* nosymm scf=tight 

Mol

0 1
H	 -3.238232	 0.273190	 -0.380566
C	 -2.881355	 1.295864	 -0.485053
O	 -1.518481	 1.333538	 -0.761626
H	 -3.395314	 1.762995	 -1.313773
H	 -3.120122	 1.839567	 0.428077
C	 -0.719715	 0.768384	 0.229244
C	 0.719720	 0.768376	 -0.229267
H	 -0.801489	 1.341700	 1.153537
H	 -1.028973	 -0.253399	 0.439771
O	 1.392611	 -0.295398	 0.366430
H	 0.750534	 0.687200	 -1.313918
H	 1.185043	 1.714359	 0.050526
C	 2.706965	 -0.449871	 -0.062409
H	 2.756559	 -0.644779	 -1.131878
H	 3.305899	 0.433456	 0.155466
H	 3.125548	 -1.294566	 0.467107

7 10 13 14 F

2 3 6 7 F

