%nprocshared=1
%mem=2GB
#HF/6-31G* nosymm scf=tight 

Mol

0 1
H	 3.328362	 -0.444004	 -1.046337
C	 2.615669	 -0.663723	 -0.259750
C	 1.322923	 0.120767	 -0.479465
H	 2.435255	 -1.734139	 -0.265492
H	 3.078196	 -0.405607	 0.687899
C	 0.306652	 -0.176050	 0.621399
H	 0.887246	 -0.139307	 -1.438618
H	 1.525796	 1.185183	 -0.490578
N	 -1.068537	 -0.011044	 0.085269
H	 0.372515	 -1.192590	 0.973735
H	 0.391664	 0.520566	 1.441230
O	 -1.656956	 -0.997225	 -0.235017
O	 -1.478635	 1.104830	 -0.018026

12 9 6 3 F

