%nprocshared=1
%mem=2GB
#HF/6-31G* nosymm scf=tight 

Mol

0 1
H	 0.540297	 -2.992987	 1.874558
O	 0.628196	 -2.412400	 1.124905
C	 -0.378373	 -1.539811	 1.157124
C	 -0.318135	 -0.576402	 0.000164
O	 -1.201769	 -1.555609	 2.013141
C	 -1.454360	 0.441875	 -0.000474
H	 0.650923	 -0.085910	 0.036864
H	 -0.316559	 -1.165943	 -0.912767
C	 -2.826123	 -0.230780	 0.000056
H	 -1.357605	 1.085198	 -0.868380
H	 -1.357504	 1.086451	 0.866496
H	 -2.959731	 -0.858053	 -0.876869
H	 -3.619374	 0.509403	 -0.000080
H	 -2.959371	 -0.857318	 0.877556

2 3 4 7 F

1 2 3 5 F

