%nprocshared=1
%mem=2GB
#HF/6-31G* nosymm scf=tight 

Mol

0 1
H	 2.019191	 -0.825744	 1.094065
C	 1.960014	 -0.228459	 0.176160
C	 0.698378	 0.580260	 0.017456
O	 2.852511	 -0.249603	 -0.608142
C	 -0.558097	 -0.297372	 0.091132
H	 0.753088	 1.114059	 -0.924110
H	 0.672175	 1.315682	 0.820760
C	 -1.850991	 0.512573	 -0.019058
H	 -0.526138	 -1.036733	 -0.705798
H	 -0.560342	 -0.852598	 1.027389
C	 -3.096943	 -0.368295	 -0.099594
H	 -1.800724	 1.150330	 -0.898172
H	 -1.931651	 1.177355	 0.838044
H	 -3.060452	 -1.020287	 -0.967456
H	 -3.996858	 0.233488	 -0.175704
H	 -3.191959	 -0.995686	 0.782074

6 3 5 9 F

4 2 3 6 F

