%nprocshared=24
%mem=2GB
#HF/6-31G* nosymm scf=tight 

Mol

0 1
H	 -2.644465	 1.541790	 2.007177
C	 -2.482748	 0.580574	 1.559324
C	 -1.411393	 0.370527	 0.829886
H	 -3.211128	 -0.191161	 1.723029
O	 -1.180634	 -0.819263	 0.215062
H	 -0.666537	 1.127784	 0.659747
C	 0.051604	 -1.018856	 -0.387932
C	 1.043764	 0.054862	 -0.001873
H	 -0.017620	 -1.041351	 -1.469781
H	 0.437898	 -1.966374	 -0.042284
F	 0.990529	 0.254188	 1.307035
F	 2.284001	 -0.290991	 -0.305236
F	 0.789209	 1.201364	 -0.597797

11 8 7 9 F

6 3 2 1 F

6 3 5 7 F

