%nprocshared=1
%mem=2GB
#HF/6-31G* nosymm scf=tight 

Mol

0 1
H	 -3.161837	 0.500524	 -0.000234
C	 -2.367097	 -0.232926	 -0.000000
O	 -1.158440	 0.455814	 -0.000122
H	 -2.468853	 -0.861886	 -0.882833
H	 -2.468942	 -0.861421	 0.883154
C	 -0.867982	 1.106008	 1.200193
C	 0.469262	 1.812968	 1.063627
H	 -0.833604	 0.385623	 2.018583
H	 -1.653637	 1.824557	 1.437559
C	 0.870502	 2.555555	 2.337382
H	 1.223572	 1.075880	 0.805983
H	 0.409322	 2.504800	 0.229077
H	 0.959960	 1.876421	 3.180708
H	 1.827484	 3.050771	 2.211718
H	 0.139486	 3.315135	 2.600169

11 7 6 8 F

8 6 3 2 F

