%nprocshared=1
%mem=2GB
#HF/6-31G* nosymm scf=tight 

Mol

0 1
H	 -0.314752	 3.001425	 -0.790005
C	 0.411227	 2.338203	 -0.303388
C	 0.065331	 0.871482	 -0.349150
O	 1.385684	 2.789984	 0.204596
C	 0.028733	 0.322747	 -1.782688
H	 -0.883656	 0.728045	 0.154598
H	 0.829719	 0.342351	 0.218207
C	 -0.074920	 -1.201698	 -1.843918
H	 0.927967	 0.645346	 -2.297777
H	 -0.805156	 0.769909	 -2.319638
H	 0.767484	 -1.668647	 -1.343078
H	 -0.084719	 -1.546943	 -2.872523
H	 -0.980755	 -1.563314	 -1.366334

6 3 5 9 F

