%nprocshared=1
%mem=2GB
#HF/6-31G* nosymm scf=tight 

Mol

0 1
O	 2.414628	 2.050996	 0.273660
C	 1.423493	 2.364802	 0.858412
C	 0.165630	 1.515030	 0.833831
C	 1.357087	 3.642594	 1.669581
C	 0.291004	 0.242674	 0.000989
H	 -0.095564	 1.276619	 1.864039
H	 -0.649575	 2.136954	 0.466336
C	 -0.994322	 -0.586602	 0.000262
H	 1.114340	 -0.352709	 0.382783
H	 0.559474	 0.508536	 -1.016552
C	 -2.259874	 0.272531	 0.000494
H	 -1.004862	 -1.240012	 -0.870939
H	 -1.005220	 -1.241071	 0.870675
C	 -3.549786	 -0.549746	 -0.000374
H	 -2.250389	 0.926680	 -0.869574
H	 -2.250838	 0.925513	 0.871430
C	 -4.809590	 0.315458	 -0.000369
H	 -3.560515	 -1.202009	 -0.871156
H	 -3.561123	 -1.202955	 0.869711
H	 -4.844746	 0.956611	 -0.876632
H	 -5.706986	 -0.295590	 -0.001609
H	 -4.845960	 0.954827	 0.877144
H	 1.124633	 3.421193	 2.707157
H	 2.305075	 4.159420	 1.614403
H	 0.569393	 4.289124	 1.293853

15 11 8 12 F

15 11 14 18 F

1 2 3 6 F

9 5 3 6 F

