%nprocshared=1
%mem=2GB
#HF/6-31G* nosymm scf=tight 

Mol

0 1
O	 1.620931	 1.101778	 -1.874695
C	 0.683649	 1.048354	 -1.124129
C	 -0.471681	 2.019659	 -1.278618
N	 0.623947	 0.147590	 -0.102813
H	 -0.610022	 2.618153	 -0.384890
H	 -0.237589	 2.670069	 -2.107602
H	 -1.402653	 1.502618	 -1.484873
C	 1.665360	 -0.855771	 0.000151
C	 -0.563584	 -0.109682	 0.681933
H	 2.465253	 -0.618490	 -0.692587
H	 1.257730	 -1.821716	 -0.242189
H	 2.081488	 -0.891645	 1.004627
H	 -0.270422	 -0.390944	 1.686416
H	 -1.187079	 0.766933	 0.757657
H	 -1.157331	 -0.921702	 0.266120

8 4 2 3 F

