%nprocshared=1
%mem=2GB
#HF/6-31G* nosymm scf=tight 

Mol

0 1
H	 -2.798360	 -0.862255	 -0.071053
N	 -1.863561	 -0.715187	 0.256814
C	 -1.344686	 0.554728	 -0.219830
H	 -1.300452	 -1.461917	 -0.101532
C	 0.081427	 0.741154	 0.254071
H	 -1.362155	 0.656231	 -1.305829
H	 -1.952773	 1.354456	 0.191809
O	 0.144222	 0.386719	 1.605929
H	 0.756826	 0.115257	 -0.328790
H	 0.377888	 1.779384	 0.122068
C	 1.387937	 0.592182	 2.196290
H	 1.315160	 0.283913	 3.230394
H	 2.162454	 0.003458	 1.707917
H	 1.676922	 1.640506	 2.160030

6 3 2 4 F

5 8 11 13 F

11 8 5 3 F

