%nprocshared=1
%mem=2GB
#HF/6-31G* nosymm scf=tight 

Mol

0 1
O	 -2.324811	 1.361668	 -0.277141
C	 -2.105949	 0.203097	 -0.092081
C	 -0.889235	 -0.467034	 -0.705952
C	 -3.002726	 -0.644460	 0.782455
C	 -0.826910	 -1.952797	 -0.316378
H	 -0.008599	 0.042716	 -0.330532
H	 -0.902723	 -0.367001	 -1.787542
C	 0.406991	 -2.651634	 -0.892338
H	 -0.832988	 -2.019153	 0.765723
H	 -1.723307	 -2.461585	 -0.667597
C	 0.482402	 -4.153062	 -0.592202
H	 1.303649	 -2.164272	 -0.513909
H	 0.416845	 -2.512981	 -1.971471
C	 0.665883	 -4.495822	 0.887273
H	 1.313313	 -4.572435	 -1.153813
H	 -0.414506	 -4.640501	 -0.969093
H	 1.550560	 -4.012588	 1.292928
H	 0.784278	 -5.566484	 1.021682
H	 -0.184074	 -4.185548	 1.485682
H	 -3.496582	 -1.399307	 0.176174
H	 -3.747939	 -0.023774	 1.260148
H	 -2.421318	 -1.168775	 1.535358

6 3 5 8 F

3 5 8 12 F

12 8 11 15 F

