%nprocshared=1
%mem=2GB
#HF/6-31G* nosymm scf=tight 

Mol

0 1
O	 0.992216	 -0.136409	 0.662742
C	 0.028650	 0.075053	 -0.000277
C	 -1.233602	 -0.752807	 0.000328
O	 -0.062648	 1.091440	 -0.847934
C	 -2.501530	 0.091881	 0.000126
H	 -1.193807	 -1.406641	 -0.865785
H	 -1.193516	 -1.405779	 0.867015
H	 -2.545121	 0.729328	 -0.874513
H	 -3.377167	 -0.548497	 0.000561
H	 -2.544818	 0.730135	 0.874258
C	 1.059803	 1.949414	 -0.945772
H	 1.270162	 2.409847	 0.008776
H	 0.794343	 2.700702	 -1.673068
H	 1.930187	 1.400284	 -1.274953

11 4 2 3 F

