%nprocshared=1
%mem=2GB
#HF/6-31G* nosymm scf=tight 

Mol

0 1
O	 -2.039815	 -0.478655	 -4.482484
C	 -2.611156	 -1.317762	 -3.854866
C	 -2.339648	 -1.500676	 -2.371919
C	 -3.650617	 -2.214202	 -4.489918
C	 -0.938215	 -2.088216	 -2.139699
H	 -3.087207	 -2.183153	 -1.982453
H	 -2.437797	 -0.555327	 -1.845889
C	 0.149006	 -1.302371	 -2.876593
H	 -0.747190	 -2.095437	 -1.072534
H	 -0.916495	 -3.125606	 -2.469999
C	 0.075323	 -1.399736	 -4.404711
H	 1.126728	 -1.643891	 -2.541704
H	 0.078091	 -0.254534	 -2.592241
C	 -1.053427	 -2.288511	 -4.930067
H	 1.023541	 -1.787350	 -4.768483
H	 -0.024340	 -0.400645	 -4.824201
H	 -0.984148	 -3.291584	 -4.518035
H	 -1.004790	 -2.372263	 -6.011279
H	 -2.032469	 -1.894716	 -4.678683
H	 -3.293665	 -3.240761	 -4.495005
H	 -3.843411	 -1.896191	 -5.505046
H	 -4.573197	 -2.199013	 -3.916838

6 3 2 1 F

6 3 5 8 F

3 5 8 12 F

