%nprocshared=1
%mem=2GB
#HF/6-31G* nosymm scf=tight 

Mol

0 1
O	 0.690035	 -1.107774	 -2.176341
C	 0.074222	 -1.151290	 -1.161326
C	 -1.322786	 -1.689997	 -1.017344
O	 0.550821	 -0.724572	 0.000672
H	 -1.328101	 -2.508380	 -0.306777
H	 -1.680019	 -2.030792	 -1.977623
H	 -1.975421	 -0.915633	 -0.631328
C	 1.863949	 -0.193559	 -0.000319
H	 2.028859	 0.409284	 -0.881648
H	 2.526261	 -1.045082	 -0.000003
H	 2.029520	 0.410555	 0.880008

8 4 2 1 F

