%nprocshared=1
%mem=2GB
#HF/6-31G* nosymm scf=tight 

Mol

0 1
H	 -2.213922	 1.108439	 1.358357
C	 -1.211640	 0.698816	 1.405933
C	 -0.603454	 0.661669	 0.000000
H	 -1.268493	 -0.296151	 1.830491
H	 -0.619809	 1.318711	 2.068435
C	 0.763625	 0.112519	 0.000000
H	 -1.206680	 0.052479	 -0.663005
H	 -0.562107	 1.657108	 -0.426569
N	 1.813038	 -0.320305	 0.000000
