%nprocshared=1
%mem=2GB
#HF/6-31G* nosymm scf=tight 

Mol

0 1
H	 -10.219123	 2.047609	 4.077765
C	 -9.221727	 1.900823	 3.645009
C	 -9.204512	 1.622593	 2.163489
O	 -8.256189	 1.965224	 4.334457
C	 -8.283928	 0.450739	 1.795335
H	 -10.222881	 1.447429	 1.836454
H	 -8.846974	 2.526824	 1.672380
C	 -6.798659	 0.748941	 2.015219
H	 -8.570581	 -0.411663	 2.389791
H	 -8.452449	 0.171539	 0.756390
C	 -6.253274	 1.803461	 1.050150
H	 -6.230585	 -0.172495	 1.905241
H	 -6.636617	 1.081732	 3.038709
C	 -7.144331	 3.045428	 0.963640
H	 -5.251831	 2.085067	 1.365653
H	 -6.150381	 1.365492	 0.058192
C	 -8.476090	 2.930578	 1.714174
H	 -7.340708	 3.275648	 -0.082366
H	 -6.595566	 3.895780	 1.362978
C	 -9.441535	 1.892099	 1.140506
H	 -8.962502	 3.902772	 1.700334
H	 -8.281521	 2.704290	 2.760528
H	 -9.641833	 2.084110	 0.089658
H	 -9.050397	 0.883621	 1.223924
H	 -10.390864	 1.916855	 1.666962

6 3 5 8 F

6 3 2 4 F

3 5 8 12 F

12 8 11 14 F

20 17 14 18 F

