%nprocshared=1
%mem=2GB
#HF/6-31G* nosymm scf=tight 

Mol

0 1
H	 2.690633	 -0.239565	 0.805430
N	 1.711514	 -0.033714	 0.823084
C	 0.950727	 -1.216132	 1.183364
C	 1.282871	 0.504213	 -0.455044
H	 1.290712	 -1.572360	 2.149946
H	 1.073644	 -2.027772	 0.462411
C	 -0.524739	 -0.854129	 1.263270
H	 1.863389	 1.393823	 -0.674961
H	 1.425906	 -0.203231	 -1.275230
C	 -0.192800	 0.865150	 -0.374123
H	 -0.675598	 -0.151366	 2.088173
H	 -1.106129	 -1.745034	 1.477332
N	 -0.975995	 -0.298722	 0.000000
H	 -0.534474	 1.215852	 -1.342530
H	 -0.321420	 1.683099	 0.341081
C	 -2.393863	 -0.024976	 0.000000
H	 -2.854032	 -0.467193	 -0.876721
H	 -2.854032	 -0.467193	 0.876721
H	 -2.623281	 1.044943	 0.000000
