%nprocshared=1
%mem=2GB
#HF/6-31G* nosymm scf=tight 

Mol

0 1
H	 1.991346	 -0.104495	 2.026460
C	 1.560966	 -0.805493	 1.318012
C	 0.809604	 -1.925584	 2.036362
H	 0.896903	 -0.248620	 0.663601
H	 2.370462	 -1.200644	 0.710253
C	 0.195362	 -2.936645	 1.065654
H	 0.027323	 -1.494452	 2.652611
H	 1.492062	 -2.442087	 2.709540
C	 1.162319	 -3.416464	 -0.016952
H	 -0.169580	 -3.795495	 1.617776
H	 -0.665452	 -2.483912	 0.578752
C	 2.265958	 -4.333133	 0.489943
H	 0.616938	 -3.977545	 -0.774263
H	 1.608912	 -2.573960	 -0.540322
C	 3.475324	 -4.538016	 -0.405696
O	 2.182954	 -4.888927	 1.543797
C	 3.142513	 -5.197708	 -1.752249
H	 4.178855	 -5.149077	 0.146901
H	 3.941540	 -3.570781	 -0.583976
C	 3.906992	 -6.506058	 -1.962969
H	 2.073565	 -5.394231	 -1.800676
H	 3.371148	 -4.517137	 -2.568350
C	 3.584233	 -7.172245	 -3.299729
H	 3.675183	 -7.191428	 -1.151430
H	 4.975620	 -6.311267	 -1.903941
H	 2.526789	 -7.408725	 -3.374670
H	 3.837980	 -6.523738	 -4.133494
H	 4.139105	 -8.097216	 -3.419829

10 6 3 2 F

16 12 15 17 F

