%nprocshared=1
%mem=2GB
#HF/6-31G* nosymm scf=tight 

Mol

0 1
H	 -2.698709	 -0.000305	 0.034435
C	 -1.693833	 0.000034	 0.434417
O	 -0.828952	 -0.000968	 -0.659236
H	 -1.574200	 0.882896	 1.055746
H	 -1.574147	 -0.881698	 1.057355
C	 0.559449	 -0.000018	 -0.420814
C	 1.329218	 0.826791	 -1.448802
C	 0.906693	 0.389157	 1.014777
H	 0.833666	 -1.039206	 -0.558384
H	 1.021042	 0.559141	 -2.453760
H	 2.393742	 0.635603	 -1.356766
H	 1.176851	 1.893219	 -1.315837
H	 0.305582	 -0.180835	 1.714942
H	 1.952817	 0.178193	 1.213734
H	 0.745364	 1.445437	 1.204743

6 3 2 1 F

