%nprocshared=1
%mem=2GB
#HF/6-31G* nosymm scf=tight 

Mol

0 1
H	 2.573047	 -0.848604	 -1.094674
N	 1.591350	 -0.656103	 -1.118669
C	 1.289347	 0.537751	 -0.350412
C	 0.837922	 -1.800401	 -0.639462
H	 1.858550	 1.368760	 -0.753152
H	 1.548491	 0.431695	 0.705636
C	 -0.198102	 0.837691	 -0.459793
H	 1.080215	 -2.662631	 -1.251526
H	 1.069725	 -2.048071	 0.399080
C	 -0.649246	 -1.499013	 -0.748664
H	 -0.435150	 1.094033	 -1.496709
H	 -0.441669	 1.696539	 0.157136
N	 -0.975995	 -0.298722	 0.000000
H	 -1.218614	 -2.327653	 -0.340348
H	 -0.916519	 -1.399221	 -1.804933
C	 -2.393863	 -0.024976	 0.000000
H	 -2.854032	 -0.467193	 -0.876721
H	 -2.854032	 -0.467193	 0.876721
H	 -2.623281	 1.044943	 0.000000
