%nprocshared=1
%mem=2GB
#HF/6-31G* nosymm scf=tight 

Mol

0 1
H	 -2.581611	 1.725958	 -1.724381
O	 -2.106792	 2.331071	 -1.170992
C	 -0.824918	 1.825061	 -0.937078
C	 -0.795902	 0.595680	 -0.067389
H	 -0.267609	 2.622563	 -0.458958
H	 -0.316363	 1.610134	 -1.876335
C	 -1.522220	 -0.487727	 -0.255690
H	 -0.115692	 0.645741	 0.768847
H	 -1.071454	 -1.449856	 -0.418625
H	 -2.596511	 -0.445958	 -0.267127

5 3 2 1 F

5 3 4 7 F

