%nprocshared=1
%mem=2GB
#HF/6-31G* nosymm scf=tight 

Mol

0 1
H	 -2.382920	 0.687728	 1.212917
C	 -1.386557	 0.263370	 1.255399
C	 -0.603454	 0.661669	 0.000000
H	 -1.476305	 -0.813487	 1.331330
H	 -0.897076	 0.628470	 2.150134
C	 0.763625	 0.112519	 0.000000
H	 -1.104393	 0.307115	 -0.893264
H	 -0.528835	 1.739935	 -0.079648
N	 1.813038	 -0.320305	 0.000000
