%nprocshared=1
%mem=2GB
#HF/6-31G* nosymm scf=tight 

Mol

0 1
H	 -0.944757	 -0.000069	 1.678017
O	 -0.042387	 -0.000390	 1.388199
C	 -0.001487	 0.000018	 -0.026623
C	 0.939121	 -1.104658	 -0.511997
C	 -1.413133	 -0.204710	 -0.579783
C	 0.535454	 1.374594	 -0.409581
H	 1.025479	 -1.104305	 -1.593866
H	 0.573541	 -2.083535	 -0.210239
H	 1.927471	 -0.969608	 -0.086622
H	 -1.422338	 -0.169823	 -1.664582
H	 -1.810191	 -1.170964	 -0.277080
H	 -2.078635	 0.564514	 -0.203912
H	 0.606588	 1.477811	 -1.487556
H	 1.520365	 1.524477	 0.018173
H	 -0.118775	 2.151312	 -0.029993
