%nprocshared=1
%mem=2GB
#HF/6-31G* nosymm scf=tight 

Mol

0 1
H	 -2.071057	 2.293933	 -0.017530
C	 -1.693085	 1.288716	 -0.010250
C	 -2.554929	 0.205159	 -0.001434
C	 -0.333340	 1.062794	 -0.009676
H	 -3.618787	 0.360553	 -0.001830
C	 -2.054392	 -1.083291	 0.007859
H	 0.359203	 1.878339	 -0.016520
C	 0.154804	 -0.237046	 -0.000077
H	 -2.739577	 -1.910682	 0.014420
C	 -0.687514	 -1.353937	 0.009042
N	 1.611208	 -0.370857	 -0.000034
C	 -0.251309	 -2.802573	 0.019428
O	 2.274126	 0.622059	 -0.008063
O	 2.068510	 -1.474748	 0.007823
H	 0.344405	 -3.032059	 0.892119
H	 -1.128868	 -3.436815	 0.021346
H	 0.348666	 -3.043323	 -0.847285
