%nprocshared=1
%mem=2GB
#HF/6-31G* nosymm scf=tight 

Mol

0 1
H	 -2.577606	 0.247184	 1.509904
O	 -1.840915	 -0.185680	 1.103718
C	 -2.061112	 -1.573124	 1.079922
C	 -3.536763	 -1.946123	 0.990189
H	 -1.537782	 -1.939221	 0.205981
H	 -1.607151	 -2.045977	 1.950043
C	 -4.309381	 -1.175329	 -0.083033
H	 -3.611632	 -3.013306	 0.798142
H	 -3.991724	 -1.766094	 1.962797
C	 -4.458273	 0.312072	 0.249062
H	 -5.293112	 -1.620378	 -0.203744
H	 -3.798904	 -1.278082	 -1.040736
C	 -3.169332	 1.000467	 0.712833
H	 -4.852910	 0.835178	 -0.620116
H	 -5.206294	 0.418694	 1.031875
C	 -2.633650	 0.521745	 2.064998
H	 -2.403115	 0.835165	 -0.041755
H	 -3.329790	 2.076934	 0.749006
C	 -3.532837	 0.920077	 3.237274
H	 -1.637240	 0.932331	 2.222147
H	 -2.520429	 -0.559675	 2.061105
C	 -5.007592	 0.600405	 2.995261
H	 -3.196659	 0.410877	 4.137934
H	 -3.421699	 1.985106	 3.430269
H	 -5.156397	 -0.463145	 2.831118
H	 -5.618227	 0.892395	 3.844085
H	 -5.384486	 1.124381	 2.121326

14 10 7 4 F

14 10 13 16 F

10 7 4 8 F

8 4 3 2 F

10 13 16 20 F

20 16 19 22 F

