%nprocshared=1
%mem=2GB
#HF/6-31G* nosymm scf=tight 

Mol

0 1
H	 2.310249	 -0.854015	 -0.667080
C	 1.565535	 -0.086642	 -0.803448
O	 0.464886	 -0.454746	 -0.000158
H	 1.286246	 -0.040587	 -1.849345
H	 1.973416	 0.867573	 -0.491729
C	 -0.590998	 0.343045	 0.000118
O	 -1.699443	 -0.054298	 0.000227
H	 -0.340329	 1.404368	 0.000207
