%nprocshared=1
%mem=2GB
#HF/6-31G* nosymm scf=tight 

Mol

0 1
O	 1.825465	 1.324323	 -0.951462
C	 0.788116	 1.716284	 -1.379704
C	 -0.516134	 0.957269	 -1.353318
O	 0.640172	 2.906476	 -1.947763
C	 -0.823008	 0.326187	 0.001381
H	 -1.299814	 1.647936	 -1.652547
H	 -0.470175	 0.205508	 -2.136556
C	 -0.525073	 1.274043	 1.164078
H	 -0.243814	 -0.585283	 0.110669
H	 -1.865784	 0.025824	 0.028001
C	 0.972015	 1.444499	 1.427766
H	 -0.966095	 2.248861	 0.961034
H	 -1.007916	 0.904605	 2.067549
C	 1.751060	 1.876546	 0.186124
H	 1.379642	 0.508263	 1.802524
H	 1.116281	 2.177681	 2.218189
H	 1.654629	 1.145507	 -0.611684
H	 2.808353	 1.989067	 0.405033
H	 1.388826	 2.828050	 -0.193004
C	 1.792514	 3.724689	 -2.034891
H	 2.180449	 3.940881	 -1.049855
H	 1.472688	 4.634305	 -2.518819
H	 2.560106	 3.239076	 -2.620117

15 11 8 12 F

9 5 8 12 F

1 2 3 6 F

1 2 4 20 F

