%nprocshared=1
%mem=2GB
#HF/6-31G* nosymm scf=tight 

Mol

0 1
O	 -0.806752	 -1.114546	 1.082146
C	 -0.561929	 -0.074560	 0.531515
C	 -1.597472	 1.034011	 0.503089
N	 0.623947	 0.147590	 -0.102813
H	 -1.868528	 1.298769	 -0.513038
H	 -2.472791	 0.671041	 1.019920
H	 -1.237628	 1.928840	 0.999450
C	 1.019454	 1.515161	 -0.377037
C	 1.356381	 -0.866365	 -0.829229
H	 2.048681	 1.531964	 -0.718250
H	 0.931362	 2.100828	 0.521392
H	 0.395268	 1.959678	 -1.149189
H	 2.416794	 -0.654253	 -0.761605
H	 1.193136	 -1.848149	 -0.414036
H	 1.085052	 -0.886914	 -1.883160

2 4 8 10 F

