%nprocshared=1
%mem=2GB
#HF/6-31G* nosymm scf=tight 

Mol

0 1
H	 -2.244713	 0.404593	 2.278350
C	 -1.794302	 0.187500	 1.327889
C	 -2.569368	 0.048063	 0.189128
C	 -0.426998	 0.043812	 1.228981
H	 -3.637535	 0.156575	 0.245568
C	 -1.976089	 -0.231370	 -1.027698
H	 0.199946	 0.145662	 2.089995
C	 0.154804	 -0.237046	 -0.000077
H	 -2.594809	 -0.335636	 -1.899713
C	 -0.598388	 -0.384269	 -1.169716
N	 1.611208	 -0.370857	 -0.000034
C	 -0.057030	 -0.688856	 -2.549241
O	 2.274126	 0.622059	 -0.008063
O	 2.068510	 -1.474748	 0.007823
H	 0.473237	 -1.630956	 -2.569060
H	 -0.880922	 -0.739215	 -3.249984
H	 0.635000	 0.072488	 -2.881767
