%nprocshared=1
%mem=2GB
#HF/6-31G* nosymm scf=tight 

Mol

0 1
H	 2.536377	 0.872851	 -2.227942
N	 1.643088	 0.475062	 -2.010356
C	 1.683098	 -0.212745	 -0.727840
H	 1.425725	 -0.168708	 -2.747339
C	 0.299018	 -0.732831	 -0.354227
H	 2.011029	 0.502966	 0.019875
H	 2.398708	 -1.038468	 -0.705835
C	 -0.679275	 0.379305	 0.025956
H	 -0.089913	 -1.304986	 -1.191607
H	 0.393495	 -1.429733	 0.478082
C	 -0.791153	 1.473151	 -1.037697
H	 -0.367190	 0.827891	 0.967881
H	 -1.665061	 -0.047627	 0.204288
C	 -2.115055	 2.234023	 -0.975523
H	 0.033362	 2.173024	 -0.921214
H	 -0.676491	 1.028719	 -2.024099
H	 -2.243718	 2.718807	 -0.011807
H	 -2.163946	 3.002377	 -1.740928
H	 -2.958889	 1.565841	 -1.123406

6 3 5 9 F

12 8 5 9 F

1 2 3 6 F

