%nprocshared=1
%mem=2GB
#HF/6-31G* nosymm scf=tight 

Mol

0 1
O	 -0.644987	 -1.652990	 1.664992
C	 -1.514987	 -1.440192	 0.882411
C	 -2.775474	 -2.260464	 0.784449
O	 -1.481751	 -0.454642	 0.000584
H	 -3.283566	 -2.233162	 1.740984
H	 -3.433286	 -1.897333	 0.008654
H	 -2.505502	 -3.290827	 0.586090
C	 -0.334255	 0.388708	 0.000906
C	 0.891947	 -0.504646	 0.000751
H	 -0.365390	 1.025305	 -0.873475
H	 -0.365484	 1.024911	 0.875569
C	 0.838286	 -1.556101	 -1.109219
H	 0.972990	 -0.989855	 0.969484
H	 1.777328	 0.114301	 -0.115286
C	 -0.451120	 -2.379104	 -1.088616
H	 0.935886	 -1.068243	 -2.077493
H	 1.691661	 -2.225748	 -1.017531
C	 -0.505254	 -3.428381	 -2.198100
H	 -1.304905	 -1.711509	 -1.180500
H	 -0.549090	 -2.869168	 -0.122537
H	 -0.443489	 -2.965655	 -3.178959
H	 -1.430236	 -3.994948	 -2.157545
H	 0.317781	 -4.132197	 -2.112854

13 9 8 10 F

2 4 8 10 F

19 15 12 16 F

1 2 4 8 F

