%nprocshared=1
%mem=2GB
#HF/6-31G* nosymm scf=tight 

Mol

0 1
O	 -3.853486	 4.767425	 2.367791
C	 -3.589812	 4.457530	 1.246542
C	 -2.652680	 3.307590	 0.923494
C	 -4.178810	 5.198743	 0.063816
C	 -2.933125	 2.035105	 1.717450
H	 -2.717326	 3.115698	 -0.146734
H	 -1.633034	 3.650735	 1.093720
C	 -4.185483	 1.304223	 1.230444
H	 -3.037735	 2.287092	 2.768016
H	 -2.072331	 1.377266	 1.650890
C	 -5.482763	 2.004631	 1.638152
H	 -4.153705	 1.211731	 0.145787
H	 -4.188577	 0.287896	 1.621772
C	 -5.538621	 3.472257	 1.210406
H	 -5.601662	 1.940601	 2.718329
H	 -6.329168	 1.472576	 1.207440
C	 -4.645768	 4.376265	 2.059680
H	 -5.245197	 3.554394	 0.165907
H	 -6.566364	 3.824997	 1.266774
H	 -3.605383	 4.069891	 1.997353
H	 -4.706302	 5.409573	 1.732096
H	 -4.936629	 4.343327	 3.105845
H	 -4.744894	 4.518640	 -0.565967
H	 -4.826996	 5.989572	 0.414927
H	 -3.388670	 5.622899	 -0.548887

9 5 8 12 F

15 11 8 12 F

15 11 14 18 F

1 2 3 6 F

