%nprocshared=1
%mem=2GB
#HF/6-31G* nosymm scf=tight 

Mol

0 1
H	 0.378972	 -0.879163	 1.844787
O	 0.892272	 -0.148546	 1.527650
C	 0.030152	 0.887731	 1.157732
C	 -0.795902	 0.595680	 -0.067389
H	 0.657676	 1.752838	 0.976054
H	 -0.632915	 1.151949	 1.980870
C	 -1.522220	 -0.487727	 -0.255690
H	 -0.761836	 1.357041	 -0.831359
H	 -1.071454	 -1.449856	 -0.418625
H	 -2.596511	 -0.445958	 -0.267127

5 3 2 1 F

5 3 4 7 F

