%nprocshared=1
%mem=2GB
#HF/6-31G* nosymm scf=tight 

Mol

0 1
H	 -2.577606	 0.247184	 1.509904
O	 -1.840915	 -0.185680	 1.103718
C	 -2.061112	 -1.573124	 1.079922
C	 -1.000105	 -2.363248	 1.838008
H	 -3.028805	 -1.725472	 1.540395
H	 -2.132069	 -1.930135	 0.053137
C	 -0.685556	 -1.807258	 3.228980
H	 -1.333629	 -3.394148	 1.923887
H	 -0.091442	 -2.372670	 1.238334
C	 0.019134	 -0.448744	 3.177307
H	 -0.063665	 -2.518404	 3.765533
H	 -1.610658	 -1.708344	 3.797085
C	 -0.613789	 0.569013	 2.221316
H	 0.055990	 -0.026221	 4.179785
H	 1.052934	 -0.606335	 2.877102
C	 -0.513021	 0.207968	 0.736739
H	 -1.664887	 0.674722	 2.481769
H	 -0.162384	 1.546163	 2.386389
C	 0.920763	 0.265261	 0.205308
H	 -1.136801	 0.888299	 0.158675
H	 -0.910973	 -0.789469	 0.566274
C	 1.920042	 -0.466562	 1.100596
H	 0.951453	 -0.162864	 -0.794319
H	 1.224408	 1.304843	 0.100646
H	 1.662094	 -1.517291	 1.198863
H	 2.926042	 -0.409653	 0.696417
H	 1.940217	 -0.037709	 2.098615

14 10 7 4 F

14 10 13 16 F

10 7 4 8 F

8 4 3 2 F

10 13 16 20 F

20 16 19 22 F

