%nprocshared=1
%mem=2GB
#HF/6-31G* nosymm scf=tight opt=ModRedundant

Mol

0 1
O	 -1.022000	 -1.466000	 0.047000
C	 -0.711000	 -0.306000	 -0.012000
C	 -1.781000	 0.770000	 -0.013000
N	 0.590000	 0.090000	 -0.105000
H	 -1.737000	 1.373000	 -0.912000
H	 -2.738000	 0.273000	 0.034000
H	 -1.681000	 1.431000	 0.841000
C	 1.631000	 -0.913000	 -0.003000
C	 1.032000	 1.459000	 0.046000
H	 2.430000	 -0.676000	 -0.696000
H	 1.223000	 -1.879000	 -0.244000
H	 2.048000	 -0.949000	 1.002000
H	 1.909000	 1.618000	 -0.571000
H	 0.276000	 2.158000	 -0.276000
H	 1.300000	 1.689000	 1.075000
