%nprocshared=1
%mem=2GB
#HF/6-31G* nosymm scf=tight 

Mol

0 1
H	 -3.489899	 1.228218	 -1.029938
O	 -3.452007	 0.283848	 -0.965577
C	 -3.181085	 -0.079926	 0.364119
C	 -1.765924	 0.277073	 0.805136
H	 -3.327791	 -1.152017	 0.410903
H	 -3.905698	 0.375695	 1.036898
C	 -1.713137	 1.036939	 2.131158
H	 -1.177017	 -0.637395	 0.881936
H	 -1.302072	 0.870791	 0.019285
C	 -2.313067	 2.441712	 2.042408
H	 -0.682133	 1.099132	 2.465631
H	 -2.245617	 0.464516	 2.888913
C	 -3.678005	 2.461174	 1.349119
H	 -2.399812	 2.853180	 3.045198
H	 -1.628146	 3.094581	 1.502731
C	 -3.645618	 2.104635	 -0.141514
H	 -4.130134	 3.444022	 1.472754
H	 -4.336230	 1.759484	 1.857242
C	 -5.019798	 1.854148	 -0.765446
H	 -3.037733	 1.212130	 -0.268798
H	 -3.139038	 2.896491	 -0.689732
H	 -5.555235	 1.074905	 -0.229511
H	 -4.921713	 1.535450	 -1.798716
H	 -5.638217	 2.745590	 -0.758070

20 16 13 17 F

17 13 10 7 F

13 10 7 11 F

11 7 4 3 F

1 2 3 5 F

