%nprocshared=1
%mem=2GB
#HF/6-31G* nosymm scf=tight 

Mol

0 1
H	 -1.836216	 1.387520	 -0.000064
C	 -1.301823	 0.443321	 -0.000031
O	 -0.003969	 0.658512	 0.000451
O	 -1.829879	 -0.616434	 -0.000857
C	 0.850537	 -0.484732	 0.000380
C	 1.678367	 -0.432835	 1.266209
H	 1.469460	 -0.457246	 -0.885902
H	 0.240532	 -1.376445	 -0.044759
H	 2.276625	 0.470552	 1.298023
H	 2.344980	 -1.288015	 1.305294
H	 1.041883	 -0.453086	 2.143344

5 3 2 4 F

