%nprocshared=1
%mem=2GB
#HF/6-31G* nosymm scf=tight 

Mol

0 1
H	 1.373018	 -1.804866	 1.478836
C	 1.544344	 -0.723526	 1.414384
C	 0.299366	 0.117027	 1.294222
O	 2.651235	 -0.292039	 1.441566
C	 -0.558097	 -0.297372	 0.091132
H	 0.596614	 1.157113	 1.228311
H	 -0.277462	 -0.011274	 2.209448
C	 -1.850991	 0.512573	 -0.019058
H	 0.022064	 -0.177310	 -0.820883
H	 -0.801968	 -1.355656	 0.164757
C	 -3.096943	 -0.368295	 -0.099594
H	 -1.800724	 1.150330	 -0.898172
H	 -1.931651	 1.177355	 0.838044
H	 -3.060452	 -1.020287	 -0.967456
H	 -3.996858	 0.233488	 -0.175704
H	 -3.191959	 -0.995686	 0.782074

6 3 5 9 F

4 2 3 6 F

