%nprocshared=1
%mem=2GB
#HF/6-31G* nosymm scf=tight 

Mol

0 1
O	 2.366887	 2.125256	 -0.026501
C	 1.273726	 2.597767	 -0.093517
C	 0.020094	 1.741413	 -0.091874
C	 1.065861	 4.095602	 -0.185364
C	 0.291004	 0.242674	 0.000989
H	 -0.607534	 2.071131	 0.735022
H	 -0.544549	 1.975450	 -0.993433
C	 -0.994322	 -0.586602	 0.000262
H	 0.861074	 0.039382	 0.902001
H	 0.923929	 -0.056512	 -0.828493
C	 -2.259874	 0.272531	 0.000494
H	 -1.004862	 -1.240012	 -0.870939
H	 -1.005220	 -1.241071	 0.870675
C	 -3.549786	 -0.549746	 -0.000374
H	 -2.250389	 0.926680	 -0.869574
H	 -2.250838	 0.925513	 0.871430
C	 -4.809590	 0.315458	 -0.000369
H	 -3.560515	 -1.202009	 -0.871156
H	 -3.561123	 -1.202955	 0.869711
H	 -4.844746	 0.956611	 -0.876632
H	 -5.706986	 -0.295590	 -0.001609
H	 -4.845960	 0.954827	 0.877144
H	 0.464247	 4.446556	 0.648008
H	 2.023126	 4.597993	 -0.176307
H	 0.532336	 4.348657	 -1.096928

15 11 8 12 F

15 11 14 18 F

1 2 3 6 F

9 5 3 6 F

