%nprocshared=1
%mem=2GB
#HF/6-31G* nosymm scf=tight 

Mol

0 1
H	 -3.420663	 1.227371	 -1.044276
O	 -3.452007	 0.283848	 -0.965577
C	 -3.181085	 -0.079926	 0.364119
C	 -1.765924	 0.277073	 0.805136
H	 -3.327791	 -1.152017	 0.410903
H	 -3.905698	 0.375695	 1.036898
C	 -0.677594	 -0.417312	 -0.014550
H	 -1.637766	 1.358238	 0.744969
H	 -1.659588	 0.017670	 1.857098
C	 0.738335	 -0.034840	 0.421385
H	 -0.814977	 -0.178223	 -1.064632
H	 -0.802730	 -1.495410	 0.071702
C	 1.822265	 -0.738362	 -0.399735
H	 0.853533	 1.043532	 0.342250
H	 0.871597	 -0.279636	 1.474438
C	 1.984984	 -0.213520	 -1.830895
H	 1.612942	 -1.806481	 -0.431383
H	 2.773926	 -0.631933	 0.116821
C	 3.235815	 -0.716192	 -2.554185
H	 2.015146	 0.872887	 -1.797729
H	 1.102590	 -0.474128	 -2.411985
H	 4.133996	 -0.480591	 -1.989471
H	 3.329392	 -0.251216	 -3.530852
H	 3.213165	 -1.790131	 -2.706842

20 16 13 17 F

13 10 7 11 F

11 7 4 3 F

1 2 3 5 F

7 4 3 2 F

