%nprocshared=1
%mem=2GB
#HF/6-31G* nosymm scf=tight 

Mol

0 1
H	 -1.888381	 -1.413988	 -0.288845
C	 -1.890875	 -0.341999	 -0.120990
N	 -0.528168	 0.128977	 -0.000000
H	 -2.424908	 -0.153887	 0.803379
H	 -2.448013	 0.121407	 -0.939597
C	 0.248044	 -0.037491	 -1.209632
H	 -0.525974	 1.091379	 0.273508
H	 0.998722	 0.743888	 -1.266824
H	 -0.398417	 0.061950	 -2.074060
H	 0.763621	 -0.999315	 -1.275517
