%nprocshared=1
%mem=2GB
#HF/6-31G* nosymm scf=tight 

Mol

0 1
H	 -0.024935	 2.599320	 -0.008573
C	 0.857781	 1.958153	 -0.010564
N	 0.538815	 0.649616	 0.000000
O	 1.965626	 2.407351	 -0.021078
C	 1.521968	 -0.411503	 0.000000
H	 -0.425569	 0.408409	 0.008195
H	 2.150599	 -0.357004	 -0.881901
H	 0.999455	 -1.354525	 0.000000
H	 2.150599	 -0.357004	 0.881901

1 2 3 6 F

