%nprocshared=1
%mem=2GB
#HF/6-31G* nosymm scf=tight 

Mol

0 1
H	 -3.457960	 0.166880	 1.449720
O	 -3.367910	 -0.300316	 2.267454
C	 -3.043259	 -1.643282	 2.012310
C	 -1.609705	 -1.833855	 1.529264
H	 -3.184960	 -2.163733	 2.950780
H	 -3.740919	 -2.074362	 1.295219
C	 -1.314720	 -1.174099	 0.179978
H	 -0.935821	 -1.437562	 2.284379
H	 -1.414703	 -2.902721	 1.459510
C	 0.082516	 -0.550478	 0.119573
H	 -2.061902	 -0.409784	 -0.014719
H	 -1.409711	 -1.915121	 -0.613877
C	 1.211063	 -1.447337	 0.641461
H	 0.300146	 -0.258420	 -0.906188
H	 0.076579	 0.368932	 0.701251
C	 1.160547	 -1.738261	 2.143889
H	 1.172711	 -2.392516	 0.103892
H	 2.171338	 -0.997847	 0.393133
C	 2.242846	 -2.720178	 2.597656
H	 0.181447	 -2.141381	 2.398779
H	 1.265909	 -0.814533	 2.707739
C	 2.198691	 -3.007357	 4.098071
H	 2.135331	 -3.653221	 2.048694
H	 3.221438	 -2.323566	 2.335089
H	 1.243161	 -3.435774	 4.387284
H	 2.976087	 -3.707521	 4.388006
H	 2.340453	 -2.098366	 4.675999

14 10 7 4 F

14 10 13 16 F

8 4 3 2 F

10 13 16 20 F

20 16 19 22 F

4 3 2 1 F

