%nprocshared=1
%mem=2GB
#HF/6-31G* nosymm scf=tight 

Mol

0 1
H	 2.332609	 0.878551	 -1.051851
C	 2.357710	 0.000000	 -0.417167
C	 1.175432	 0.000000	 0.532082
H	 3.291263	 0.000000	 0.136880
H	 2.332609	 -0.878551	 -1.051851
O	 0.000000	 0.000000	 -0.221444
H	 1.206604	 0.877321	 1.177902
H	 1.206604	 -0.877321	 1.177902
C	 -1.175432	 0.000000	 0.532082
C	 -0.979397	 -0.904720	 1.732876
H	 -2.009942	 -0.350013	 -0.075233
H	 -1.413830	 1.013343	 0.854648
H	 -0.753336	 -1.915180	 1.411670
H	 -1.877087	 -0.928260	 2.342866
H	 -0.156388	 -0.549912	 2.342855
