%nprocshared=1
%mem=2GB
#HF/6-31G* nosymm scf=tight 

Mol

0 1
H	 1.940639	 -1.343781	 1.020301
C	 1.119613	 -0.677528	 1.230251
O	 0.464886	 -0.454746	 -0.000158
H	 1.505648	 0.248586	 1.639291
H	 0.454062	 -1.144151	 1.946747
C	 -0.590998	 0.343045	 0.000118
O	 -1.699443	 -0.054298	 0.000227
H	 -0.340329	 1.404368	 0.000207
