%nprocshared=1
%mem=2GB
#HF/6-31G* nosymm scf=tight 

Mol

0 1
H	 -3.420663	 1.227371	 -1.044276
O	 -3.452007	 0.283848	 -0.965577
C	 -3.181085	 -0.079926	 0.364119
C	 -1.765924	 0.277073	 0.805136
H	 -3.327791	 -1.152017	 0.410903
H	 -3.905698	 0.375695	 1.036898
C	 -0.677594	 -0.417312	 -0.014550
H	 -1.637766	 1.358238	 0.744969
H	 -1.659588	 0.017670	 1.857098
C	 0.738335	 -0.034840	 0.421385
H	 -0.814977	 -0.178223	 -1.064632
H	 -0.802730	 -1.495410	 0.071702
C	 1.822265	 -0.738362	 -0.399735
H	 0.853533	 1.043532	 0.342250
H	 0.871597	 -0.279636	 1.474438
C	 2.323758	 0.053742	 -1.612679
H	 1.449967	 -1.705971	 -0.732636
H	 2.669724	 -0.947632	 0.249754
C	 3.584855	 -0.514609	 -2.266144
H	 2.525006	 1.074802	 -1.297679
H	 1.529845	 0.116770	 -2.354253
H	 4.392930	 -0.600939	 -1.544549
H	 3.927643	 0.131220	 -3.068789
H	 3.414449	 -1.498163	 -2.691288

20 16 13 17 F

13 10 7 11 F

11 7 4 3 F

1 2 3 5 F

7 4 3 2 F

