%nprocshared=1
%mem=2GB
#HF/6-31G* nosymm scf=tight 

Mol

0 1
H	 1.017217	 -2.460634	 2.181138
O	 0.914302	 -2.093038	 1.308746
C	 -0.083902	 -1.211113	 1.346498
C	 -0.318135	 -0.576402	 0.000164
O	 -0.689296	 -0.983569	 2.342851
C	 -1.454360	 0.441875	 -0.000474
H	 0.618638	 -0.122152	 -0.311470
H	 -0.507421	 -1.378784	 -0.707903
C	 -2.826123	 -0.230780	 0.000056
H	 -1.357605	 1.085198	 -0.868380
H	 -1.357504	 1.086451	 0.866496
H	 -2.959731	 -0.858053	 -0.876869
H	 -3.619374	 0.509403	 -0.000080
H	 -2.959371	 -0.857318	 0.877556

2 3 4 7 F

1 2 3 5 F

