%nprocshared=1
%mem=2GB
#HF/6-31G* nosymm scf=tight 

Mol

0 1
H	 -2.698709	 -0.000305	 0.034435
C	 -1.693833	 0.000034	 0.434417
O	 -0.828952	 -0.000968	 -0.659236
H	 -1.574200	 0.882896	 1.055746
H	 -1.574147	 -0.881698	 1.057355
C	 0.559449	 -0.000018	 -0.420814
C	 0.964243	 0.982939	 0.675933
C	 1.112457	 -1.402643	 -0.176304
H	 0.969820	 0.359861	 -1.356824
H	 0.513421	 1.953088	 0.496713
H	 2.042775	 1.105081	 0.685149
H	 0.666202	 0.643203	 1.662805
H	 0.763650	 -2.083811	 -0.944939
H	 2.197491	 -1.383910	 -0.204849
H	 0.818635	 -1.797434	 0.790986

6 3 2 1 F

