%nprocshared=1
%mem=2GB
#HF/6-31G* nosymm scf=tight 

Mol

0 1
H	 2.540895	 -2.021409	 -1.644247
O	 2.108863	 -1.817779	 -0.820452
C	 1.348253	 -0.739501	 -1.008086
C	 0.624473	 -0.343591	 0.253101
O	 1.280022	 -0.190092	 -2.059042
C	 -0.265902	 0.883932	 0.072916
H	 0.061804	 -1.211392	 0.581275
H	 1.378989	 -0.172714	 1.016815
C	 -1.728698	 0.646073	 0.462102
H	 -0.209144	 1.219470	 -0.958188
H	 0.135059	 1.692851	 0.673903
C	 -2.482460	 -0.343073	 -0.431425
H	 -2.245265	 1.602650	 0.432430
H	 -1.779332	 0.308348	 1.496285
C	 -1.702028	 -1.636640	 -0.663995
H	 -3.442321	 -0.577621	 0.024314
H	 -2.703274	 0.112617	 -1.393178
H	 -2.254905	 -2.320309	 -1.300578
H	 -1.500470	 -2.146665	 0.273595
H	 -0.747443	 -1.437595	 -1.142937

16 12 9 6 F

12 9 6 10 F

5 3 4 7 F

1 2 3 5 F

