%nprocshared=1
%mem=2GB
#HF/6-31G* nosymm scf=tight opt=ModRedundant

Mol

0 1
H	 -1.696000	 0.219000	 0.875000
C	 -1.163000	 -0.143000	 -0.000000
C	 0.241000	 0.396000	 -0.000000
H	 -1.697000	 0.220000	 -0.874000
H	 -1.149000	 -1.224000	 -0.000000
O	 1.219000	 -0.278000	 0.000000
H	 0.324000	 1.488000	 0.000000
