%nprocshared=1
%mem=2GB
#HF/6-31G* nosymm scf=tight 

Mol

0 1
H	 2.419119	 -0.710277	 0.353736
C	 1.696523	 0.086296	 0.427098
O	 0.464886	 -0.454746	 -0.000158
H	 2.003038	 0.907527	 -0.209812
H	 1.638215	 0.423257	 1.455260
C	 -0.590998	 0.343045	 0.000118
O	 -1.699443	 -0.054298	 0.000227
H	 -0.340329	 1.404368	 0.000207
