%nprocshared=1
%mem=2GB
#HF/6-31G* nosymm scf=tight 

Mol

0 1
H	 -0.367348	 2.047014	 -0.308205
C	 0.352277	 1.337084	 0.083769
N	 -0.000016	 0.000074	 -0.335546
H	 1.328359	 1.600444	 -0.307950
H	 0.381933	 1.450534	 1.172486
C	 -0.875456	 0.007918	 -1.485247
C	 1.167551	 -0.823507	 -0.551548
H	 -1.174768	 -1.005787	 -1.726423
H	 -1.771299	 0.576144	 -1.261531
H	 -0.410057	 0.444842	 -2.374845
H	 1.762946	 -0.862359	 0.353642
H	 0.863993	 -1.835470	 -0.794907
H	 1.806296	 -0.456867	 -1.361799
