%nprocshared=1
%mem=2GB
#HF/6-31G* nosymm scf=tight 

Mol

0 1
O	 1.825465	 1.324323	 -0.951462
C	 0.788116	 1.716284	 -1.379704
C	 -0.516134	 0.957269	 -1.353318
O	 0.640172	 2.906476	 -1.947763
C	 -0.823008	 0.326187	 0.001381
H	 -1.299814	 1.647936	 -1.652547
H	 -0.470175	 0.205508	 -2.136556
C	 -0.877072	 -1.200658	 -0.068489
H	 -1.768125	 0.712383	 0.369886
H	 -0.070101	 0.636351	 0.719182
C	 -2.141159	 -1.723312	 -0.753161
H	 -0.002274	 -1.571774	 -0.600464
H	 -0.818232	 -1.613214	 0.937601
C	 -2.356665	 -1.126773	 -2.143467
H	 -3.004447	 -1.505041	 -0.128475
H	 -2.086420	 -2.806977	 -0.829390
H	 -2.450090	 -0.045449	 -2.096311
H	 -3.259759	 -1.516645	 -2.602674
H	 -1.524474	 -1.357371	 -2.802704
C	 1.792514	 3.724689	 -2.034891
H	 2.180449	 3.940881	 -1.049855
H	 1.472688	 4.634305	 -2.518819
H	 2.560106	 3.239076	 -2.620117

15 11 8 12 F

9 5 8 12 F

1 2 3 6 F

1 2 4 20 F

