%nprocshared=1
%mem=2GB
#HF/6-31G* nosymm scf=tight 

Mol

0 1
H	 -2.277856	 1.175693	 2.804692
C	 -2.023986	 0.199458	 2.396459
O	 -0.717962	 0.171859	 1.918048
H	 -2.098931	 -0.538991	 3.182728
H	 -2.742264	 -0.045090	 1.614985
C	 -0.469307	 1.073903	 0.886671
C	 0.997481	 1.030159	 0.527748
H	 -1.061278	 0.815764	 0.007677
H	 -0.735423	 2.085928	 1.184985
O	 1.392611	 -0.295398	 0.366430
H	 1.159813	 1.596528	 -0.387065
H	 1.575341	 1.502851	 1.322942
C	 2.706965	 -0.449871	 -0.062409
H	 2.756559	 -0.644779	 -1.131878
H	 3.305899	 0.433456	 0.155466
H	 3.125548	 -1.294566	 0.467107

3 6 7 11 F

2 3 6 7 F

