%nprocshared=1
%mem=2GB
#HF/6-31G* nosymm scf=tight 

Mol

0 1
H	 2.710789	 1.971130	 -0.602983
C	 2.221185	 1.073324	 -0.236280
C	 0.713743	 1.164607	 -0.451701
H	 2.440838	 0.967440	 0.820273
H	 2.659975	 0.227156	 -0.753965
N	 -0.000257	 -0.000071	 0.054619
H	 0.352582	 2.040851	 0.071879
H	 0.495041	 1.332029	 -1.510392
C	 -1.363055	 0.315058	 0.462241
C	 0.060586	 -1.132439	 -0.860093
C	 -2.412078	 -0.285320	 -0.468531
H	 -1.482241	 1.391144	 0.451970
H	 -1.549931	 -0.001174	 1.492681
C	 -0.032349	 -2.476314	 -0.144129
H	 1.006994	 -1.096929	 -1.384692
H	 -0.715100	 -1.061502	 -1.628252
H	 -2.262839	 0.075384	 -1.480151
H	 -2.369300	 -1.368867	 -0.491760
H	 -3.410332	 -0.003975	 -0.144961
H	 0.772645	 -2.571355	 0.576000
H	 -0.970309	 -2.595013	 0.387560
H	 0.044541	 -3.291525	 -0.858164
