%nprocshared=1
%mem=2GB
#HF/6-31G* nosymm scf=tight 

Mol

0 1
H	 -0.216825	 0.021369	 -3.357402
C	 0.374198	 0.036393	 -2.447010
C	 -0.521757	 -0.028637	 -1.217342
H	 0.969602	 0.942322	 -2.434777
H	 1.053364	 -0.811668	 -2.481329
N	 0.263400	 0.031178	 0.000000
H	 -1.199035	 0.820290	 -1.219355
H	 -1.147901	 -0.924895	 -1.265384
C	 -0.521757	 -0.028637	 1.217342
H	 0.935769	 -0.712709	 0.000000
C	 -0.499760	 -1.430725	 1.811240
H	 -0.089943	 0.670529	 1.927335
H	 -1.557448	 0.288377	 1.060851
H	 0.519277	 -1.741261	 2.012469
H	 -1.063468	 -1.466992	 2.738206
H	 -0.942137	 -2.151650	 1.128437
