%nprocshared=1
%mem=2GB
#HF/6-31G* nosymm scf=tight 

Mol

0 1
H	 3.041723	 -1.079364	 1.138636
O	 2.128415	 -1.322809	 1.195296
C	 1.343229	 -0.400008	 0.598377
C	 1.860535	 0.739242	 -0.004787
C	 -0.022930	 -0.621432	 0.601732
H	 2.924016	 0.909660	 -0.006287
C	 1.012244	 1.655463	 -0.603630
H	 -0.423812	 -1.500999	 1.067276
C	 -0.865228	 0.300799	 0.000000
H	 1.424235	 2.533369	 -1.067227
C	 -0.354377	 1.442206	 -0.604975
C	 -2.333960	 0.069074	 0.000000
H	 -1.015119	 2.152561	 -1.069539
O	 -2.847347	 -1.003763	 0.000000
H	 -2.943845	 0.977528	 0.000000

4 3 2 1 F

