%nprocshared=1
%mem=2GB
#HF/6-31G* nosymm scf=tight 

Mol

0 1
H	 -0.095815	 -0.258216	 3.032088
O	 -0.046189	 -0.263029	 2.086994
C	 -0.027600	 1.057957	 1.607601
C	 0.031547	 1.023609	 0.088541
H	 0.843096	 1.588894	 1.988239
H	 -0.908947	 1.598765	 1.945026
C	 -1.134819	 0.293262	 -0.585751
H	 0.962685	 0.543691	 -0.199471
H	 0.081211	 2.050078	 -0.270783
C	 -1.917817	 -0.639439	 0.339494
H	 -0.758119	 -0.268455	 -1.433105
H	 -1.813832	 1.041889	 -0.986690
H	 -2.777680	 -1.057197	 -0.174994
H	 -1.310268	 -1.471279	 0.680599
H	 -2.283753	 -0.111424	 1.216626

2 3 4 8 F

1 2 3 4 F

