%nprocshared=1
%mem=2GB
#HF/6-31G* nosymm scf=tight 

Mol

0 1
H	 3.040126	 0.979951	 1.264359
C	 2.349819	 0.273335	 0.812245
C	 0.978518	 0.915261	 0.626283
H	 2.270787	 -0.593675	 1.458628
H	 2.782976	 -0.050714	 -0.127915
N	 -0.000257	 -0.000071	 0.054619
H	 0.622264	 1.232800	 1.598204
H	 1.067753	 1.824068	 0.023959
C	 -1.363055	 0.315058	 0.462241
C	 0.134082	 -0.128645	 -1.390399
C	 -2.412078	 -0.285320	 -0.468531
H	 -1.482241	 1.391144	 0.451970
H	 -1.549931	 -0.001174	 1.492681
C	 -0.331162	 -1.485838	 -1.908874
H	 1.179218	 -0.011902	 -1.647723
H	 -0.397789	 0.674259	 -1.909290
H	 -2.262839	 0.075384	 -1.480151
H	 -2.369300	 -1.368867	 -0.491760
H	 -3.410332	 -0.003975	 -0.144961
H	 0.237731	 -2.279662	 -1.437876
H	 -1.381882	 -1.664792	 -1.707593
H	 -0.188450	 -1.549303	 -2.984017
