%nprocshared=1
%mem=2GB
#HF/6-31G* nosymm scf=tight 

Mol

0 1
H	 2.652209	 0.763231	 0.000000
O	 2.263154	 -0.100023	 0.000000
C	 0.912879	 -0.015685	 0.000000
C	 0.248297	 -0.396607	 1.158365
C	 0.196020	 0.429711	 -1.098554
H	 0.822977	 -0.738990	 1.998797
C	 -1.130463	 -0.328133	 1.206745
H	 0.712270	 0.725027	 -1.996772
C	 -1.188378	 0.493409	 -1.036114
H	 -1.640473	 -0.624263	 2.106124
C	 -1.860305	 0.116672	 0.112033
H	 -1.737400	 0.840330	 -1.893384
H	 -2.932768	 0.167215	 0.157122
