%nprocshared=1
%mem=2GB
#HF/6-31G* nosymm scf=tight 

Mol

0 1
H	 -2.698709	 -0.000305	 0.034435
C	 -1.693833	 0.000034	 0.434417
O	 -0.828952	 -0.000968	 -0.659236
H	 -1.574200	 0.882896	 1.055746
H	 -1.574147	 -0.881698	 1.057355
C	 0.559449	 -0.000018	 -0.420814
C	 1.193677	 1.368435	 -0.661664
C	 0.918735	 -0.573491	 0.948493
H	 0.939292	 -0.679059	 -1.174906
H	 0.876988	 1.766457	 -1.619701
H	 2.275468	 1.279648	 -0.670587
H	 0.931727	 2.084535	 0.110830
H	 0.411199	 -1.519165	 1.105231
H	 1.988616	 -0.747166	 1.008952
H	 0.651234	 0.097749	 1.758259

6 3 2 1 F

