%nprocshared=1
%mem=2GB
#HF/6-31G* nosymm scf=tight 

Mol

0 1
H	 -1.836216	 1.387520	 -0.000064
C	 -1.301823	 0.443321	 -0.000031
O	 -0.003969	 0.658512	 0.000451
O	 -1.829879	 -0.616434	 -0.000857
C	 0.850537	 -0.484732	 0.000380
C	 0.359746	 -1.418415	 1.085590
H	 1.866617	 -0.160461	 0.178556
H	 0.813334	 -0.948251	 -0.975868
H	 0.396507	 -0.934771	 2.055008
H	 0.985326	 -2.304264	 1.119559
H	 -0.661880	 -1.726468	 0.895139

5 3 2 4 F

