%nprocshared=1
%mem=2GB
#HF/6-31G* nosymm scf=tight 

Mol

0 1
H	 2.762751	 1.921259	 -1.173584
N	 2.000309	 1.273642	 -1.226681
C	 1.865559	 0.531981	 0.018834
H	 2.201831	 0.651008	 -1.985988
C	 0.645745	 -0.382037	 -0.029944
H	 1.740934	 1.253718	 0.820347
H	 2.751575	 -0.058782	 0.264545
C	 -0.679275	 0.379305	 0.025956
H	 0.698998	 -0.976915	 -0.937203
H	 0.693479	 -1.083846	 0.802235
C	 -0.521049	 1.882481	 -0.210267
H	 -1.147583	 0.217690	 0.995707
H	 -1.365439	 -0.028381	 -0.714866
C	 -1.847035	 2.639829	 -0.149473
H	 0.163061	 2.292230	 0.529539
H	 -0.055677	 2.047175	 -1.179783
H	 -2.321287	 2.522666	 0.820926
H	 -1.701947	 3.702107	 -0.320115
H	 -2.541509	 2.275952	 -0.901597

6 3 5 9 F

12 8 11 15 F

1 2 3 6 F

