%nprocshared=1
%mem=2GB
#HF/6-31G* nosymm scf=tight 

Mol

0 1
H	 3.729471	 -0.928294	 -0.070608
O	 2.826016	 -1.159218	 0.122261
C	 2.077727	 -0.067559	 -0.035091
C	 0.624473	 -0.343591	 0.253101
O	 2.542965	 0.974826	 -0.363729
C	 -0.265902	 0.883932	 0.072916
H	 0.324016	 -1.163849	 -0.390541
H	 0.565024	 -0.726111	 1.268924
C	 -1.728698	 0.646073	 0.462102
H	 -0.209144	 1.219470	 -0.958188
H	 0.135059	 1.692851	 0.673903
C	 -2.482460	 -0.343073	 -0.431425
H	 -2.245265	 1.602650	 0.432430
H	 -1.779332	 0.308348	 1.496285
C	 -3.705333	 -0.945096	 0.260405
H	 -2.795922	 0.163864	 -1.341810
H	 -1.821371	 -1.148235	 -0.741354
H	 -4.221563	 -1.643286	 -0.391016
H	 -4.413722	 -0.172830	 0.546097
H	 -3.421257	 -1.481597	 1.161351

7 4 6 10 F

12 9 6 10 F

5 3 4 7 F

1 2 3 5 F

