%nprocshared=1
%mem=2GB
#HF/6-31G* nosymm scf=tight 

Mol

0 1
O	 0.132016	 0.769405	 -1.673085
C	 0.788116	 1.716284	 -1.379704
C	 1.882400	 1.738802	 -0.340521
O	 0.640172	 2.906476	 -1.947763
C	 2.850754	 0.565351	 -0.454306
H	 2.401622	 2.688509	 -0.436337
H	 1.403626	 1.761086	 0.634670
C	 3.437424	 0.431205	 -1.860323
H	 2.336588	 -0.350424	 -0.180119
H	 3.650530	 0.690243	 0.268929
C	 2.434910	 -0.118802	 -2.876353
H	 3.794799	 1.402351	 -2.199668
H	 4.309933	 -0.219705	 -1.829912
C	 1.134454	 0.682261	 -2.924978
H	 2.211781	 -1.155822	 -2.635639
H	 2.891661	 -0.126638	 -3.863498
H	 0.635773	 0.679817	 -1.959822
H	 0.444943	 0.268254	 -3.654103
H	 1.321141	 1.717372	 -3.197014
C	 1.792514	 3.724689	 -2.034891
H	 2.180449	 3.940881	 -1.049855
H	 1.472688	 4.634305	 -2.518819
H	 2.560106	 3.239076	 -2.620117

15 11 8 12 F

9 5 8 12 F

1 2 3 6 F

9 5 3 6 F

