%nprocshared=1
%mem=2GB
#HF/6-31G* nosymm scf=tight 

Mol

0 1
H	 2.451652	 -2.178703	 0.543297
O	 2.773837	 -1.297590	 0.410870
C	 1.759943	 -0.431505	 0.213148
C	 0.468913	 -0.896132	 0.444027
C	 1.963722	 0.870274	 -0.201554
H	 0.336710	 -1.911928	 0.765802
C	 -0.610732	 -0.057513	 0.259235
H	 2.947340	 1.254600	 -0.386798
C	 0.857070	 1.685302	 -0.377246
H	 -1.604007	 -0.424476	 0.439789
C	 -0.432071	 1.254976	 -0.157057
N	 1.078220	 3.061538	 -0.816056
H	 -1.259583	 1.917408	 -0.304747
O	 2.201521	 3.466698	 -0.824612
O	 0.124399	 3.699920	 -1.140028

11 9 12 14 F

