%nprocshared=1
%mem=2GB
#HF/6-31G* nosymm scf=tight 

Mol

0 1
O	 1.179413	 -2.316505	 -1.405114
C	 0.335580	 -1.796827	 -0.749938
C	 -1.093771	 -2.255645	 -0.655024
O	 0.550821	 -0.724572	 0.000672
H	 -1.336426	 -2.486519	 0.375752
H	 -1.235263	 -3.129301	 -1.273568
H	 -1.755409	 -1.460340	 -0.977986
C	 1.863949	 -0.193559	 -0.000319
H	 2.028859	 0.409284	 -0.881648
H	 2.526261	 -1.045082	 -0.000003
H	 2.029520	 0.410555	 0.880008

8 4 2 1 F

