%nprocshared=1
%mem=2GB
#HF/6-31G* nosymm scf=tight 

Mol

0 1
H	 -3.048597	 1.100327	 0.783347
O	 -2.738838	 1.978745	 0.949182
C	 -3.833668	 2.844975	 1.107441
C	 -4.566363	 2.652195	 2.430589
H	 -3.426090	 3.846523	 1.057887
H	 -4.528239	 2.737236	 0.275129
C	 -3.643020	 2.587785	 3.649670
H	 -5.276538	 3.465814	 2.553235
H	 -5.145507	 1.732488	 2.366575
C	 -2.777008	 1.325070	 3.669478
H	 -4.242797	 2.630625	 4.554544
H	 -2.995832	 3.464923	 3.660450
C	 -2.087810	 0.996018	 2.340165
H	 -2.025207	 1.418815	 4.451050
H	 -3.402671	 0.480710	 3.951085
C	 -3.034785	 0.600176	 1.203932
H	 -1.515753	 1.866963	 2.027082
H	 -1.362208	 0.199705	 2.498987
C	 -4.465221	 1.099239	 1.418936
H	 -3.044660	 -0.484477	 1.106250
H	 -2.666261	 0.987989	 0.257311
C	 -5.411106	 0.710962	 0.283063
H	 -4.847259	 0.703375	 2.357459
H	 -4.456195	 2.181939	 1.526468
H	 -5.467273	 -0.368187	 0.171231
H	 -6.416738	 1.077069	 0.465559
H	 -5.076338	 1.123259	 -0.664726

14 10 7 4 F

14 10 13 16 F

10 7 4 8 F

8 4 3 2 F

20 16 19 22 F

4 3 2 1 F

