%nprocshared=1
%mem=2GB
#HF/6-31G* nosymm scf=tight 

Mol

0 1
H	 -2.098693	 1.993511	 1.143155
C	 -1.709194	 1.113607	 0.666252
C	 -2.557232	 0.180122	 0.094953
C	 -0.348239	 0.900837	 0.616470
H	 -3.621778	 0.328039	 0.123309
C	 -2.041936	 -0.947883	 -0.515623
H	 0.333873	 1.602999	 1.048290
C	 0.154804	 -0.237046	 -0.000077
H	 -2.716540	 -1.660265	 -0.953248
C	 -0.673337	 -1.199826	 -0.586818
N	 1.611208	 -0.370857	 -0.000034
C	 -0.220393	 -2.466496	 -1.279147
O	 2.274126	 0.622059	 -0.008063
O	 2.068510	 -1.474748	 0.007823
H	 0.337539	 -3.107271	 -0.610383
H	 -1.089304	 -3.006732	 -1.633426
H	 0.421497	 -2.251036	 -2.122164
