%nprocshared=1
%mem=2GB
#HF/6-31G* nosymm scf=tight 

Mol

0 1
H	 -1.320445	 0.887977	 4.759537
C	 -0.757463	 0.406699	 3.979661
C	 -0.608886	 -0.972087	 3.984460
C	 -0.182897	 1.166853	 2.973195
H	 -1.055000	 -1.560443	 4.765604
C	 0.115138	 -1.590195	 2.981359
H	 -0.299136	 2.235539	 2.971127
C	 0.542294	 0.550279	 1.968054
H	 0.240462	 -2.655941	 2.969041
C	 0.693035	 -0.831400	 1.970030
H	 0.988634	 1.134607	 1.187245
C	 1.463013	 -1.545621	 0.912827
O	 1.970282	 -0.730723	 0.000018
O	 1.613128	 -2.726882	 0.882057
C	 3.377318	 -0.566646	 -0.000065
H	 3.695437	 -0.028981	 -0.881264
H	 3.789299	 -1.563704	 0.000236
H	 3.695516	 -0.028316	 0.880770

12 13 15 16 F

13 12 10 6 F

