%nprocshared=1
%mem=2GB
#HF/6-31G* nosymm scf=tight 

Mol

0 1
O	 -1.487788	 1.240889	 -0.102860
C	 -1.083277	 0.139568	 0.115197
C	 0.323299	 -0.082943	 0.642902
C	 -1.933017	 -1.084621	 -0.143902
C	 1.355627	 -0.005344	 -0.493127
H	 0.396251	 -1.044647	 1.143147
H	 0.528637	 0.693580	 1.371677
C	 2.336697	 -1.175863	 -0.467928
H	 0.844324	 0.016132	 -1.453012
H	 1.895253	 0.931871	 -0.406116
H	 3.057824	 -1.095126	 -1.274866
H	 1.820536	 -2.125226	 -0.577986
H	 2.887128	 -1.203738	 0.467644
H	 -1.393885	 -1.806447	 -0.750509
H	 -2.850323	 -0.799888	 -0.640100
H	 -2.169004	 -1.571158	 0.798858

4 2 3 5 F

