%nprocshared=1
%mem=2GB
#HF/6-31G* nosymm scf=tight 

Mol

0 1
O	 -2.324811	 1.361668	 -0.277141
C	 -2.105949	 0.203097	 -0.092081
C	 -0.889235	 -0.467034	 -0.705952
C	 -3.002726	 -0.644460	 0.782455
C	 0.245192	 -0.592700	 0.323818
H	 -0.558368	 0.148339	 -1.535498
H	 -1.148344	 -1.447802	 -1.094517
C	 1.500149	 -1.235114	 -0.272001
H	 0.467366	 0.397741	 0.704673
H	 -0.093396	 -1.186759	 1.171284
C	 2.639672	 -1.448382	 0.731024
H	 1.858253	 -0.622714	 -1.097504
H	 1.231229	 -2.198187	 -0.700977
C	 3.252430	 -0.158230	 1.278776
H	 3.420397	 -2.026556	 0.243299
H	 2.281703	 -2.059393	 1.557227
H	 3.609491	 0.477014	 0.472738
H	 4.097223	 -0.378019	 1.924079
H	 2.539740	 0.415885	 1.861234
H	 -3.496582	 -1.399307	 0.176174
H	 -3.747939	 -0.023774	 1.260148
H	 -2.421318	 -1.168775	 1.535358

6 3 5 8 F

3 5 8 12 F

12 8 11 15 F

