%nprocshared=1
%mem=2GB
#HF/6-31G* nosymm scf=tight 

Mol

0 1
H	 -3.407059	 -1.043082	 0.000000
O	 -3.119761	 -0.140267	 -0.000000
C	 -1.777559	 -0.059267	 -0.000000
C	 -0.966497	 -1.190275	 0.000000
C	 -1.214614	 1.210835	 -0.000000
H	 -1.410881	 -2.171006	 0.000000
C	 0.405051	 -1.046485	 -0.000000
H	 -1.861210	 2.067681	 -0.000000
C	 0.158768	 1.338338	 -0.000000
H	 1.042843	 -1.910384	 0.000000
C	 0.984182	 0.218375	 0.000000
H	 0.595523	 2.322364	 -0.000000
C	 2.452467	 0.370529	 0.000000
O	 3.228994	 -0.533774	 0.000000
H	 2.809473	 1.405765	 0.000000

5 3 2 1 F

