%nprocshared=1
%mem=2GB
#HF/6-31G* nosymm scf=tight opt=ModRedundant

Mol

0 1
H	 2.365000	 -0.695000	 -0.001000
C	 1.651000	 0.112000	 -0.000000
O	 0.374000	 -0.490000	 0.000000
H	 1.795000	 0.719000	 -0.886000
H	 1.796000	 0.718000	 0.886000
C	 -0.682000	 0.308000	 0.000000
O	 -1.791000	 -0.089000	 -0.000000
H	 -0.431000	 1.370000	 -0.000000
