%nprocshared=1
%mem=2GB
#HF/6-31G* nosymm scf=tight 

Mol

0 1
H	 -2.577606	 0.247184	 1.509904
O	 -1.840915	 -0.185680	 1.103718
C	 -2.061112	 -1.573124	 1.079922
C	 -0.780577	 -2.382091	 0.905196
H	 -2.519254	 -1.814745	 2.030396
H	 -2.777306	 -1.831981	 0.300924
C	 0.360052	 -1.949202	 1.829556
H	 -1.009526	 -3.431019	 1.074601
H	 -0.460534	 -2.290600	 -0.131418
C	 0.905493	 -0.560396	 1.485275
H	 1.162926	 -2.678878	 1.771833
H	 0.009529	 -1.949437	 2.861774
C	 -0.164630	 0.514203	 1.260745
H	 1.581584	 -0.235659	 2.274131
H	 1.508638	 -0.639316	 0.583228
C	 -1.039260	 0.303749	 0.021709
H	 -0.807697	 0.544578	 2.137876
H	 0.313385	 1.490947	 1.203220
C	 -0.268884	 0.479689	 -1.288636
H	 -1.870747	 1.006720	 0.045604
H	 -1.479960	 -0.690125	 0.039084
C	 1.052661	 -0.287507	 -1.313005
H	 -0.891173	 0.152288	 -2.118727
H	 -0.074710	 1.537661	 -1.452575
H	 0.889409	 -1.353790	 -1.184110
H	 1.573719	 -0.144417	 -2.254630
H	 1.713204	 0.043168	 -0.516325

14 10 7 4 F

14 10 13 16 F

10 7 4 8 F

8 4 3 2 F

10 13 16 20 F

20 16 19 22 F

