%nprocshared=1
%mem=2GB
#HF/6-31G* nosymm scf=tight 

Mol

0 1
H	 2.380344	 1.647862	 -1.237472
N	 1.573104	 1.056506	 -1.284122
C	 1.267428	 0.496480	 0.024474
H	 1.786382	 0.326601	 -1.937317
C	 -0.016086	 -0.325158	 -0.029487
H	 1.134382	 1.324251	 0.714494
H	 2.075322	 -0.119741	 0.426914
C	 -1.282277	 0.529072	 0.046735
H	 -0.012495	 -0.908639	 -0.945788
H	 -0.015903	 -1.041248	 0.791956
C	 -2.563920	 -0.301775	 -0.006060
H	 -1.284084	 1.244622	 -0.773004
H	 -1.271387	 1.115393	 0.963286
H	 -2.621848	 -0.873522	 -0.927727
H	 -3.445135	 0.329952	 0.047812
H	 -2.609542	 -1.004582	 0.821105

12 8 5 9 F

1 2 3 6 F

