%nprocshared=1
%mem=2GB
#HF/6-31G* nosymm scf=tight 

Mol

0 1
O	 -0.806752	 -1.114546	 1.082146
C	 -0.561929	 -0.074560	 0.531515
C	 -1.597472	 1.034011	 0.503089
N	 0.623947	 0.147590	 -0.102813
H	 -1.868528	 1.298769	 -0.513038
H	 -2.472791	 0.671041	 1.019920
H	 -1.237628	 1.928840	 0.999450
C	 0.681745	 -0.010721	 -1.542769
C	 1.905099	 0.191890	 0.567212
H	 1.629286	 0.367870	 -1.909991
H	 -0.123252	 0.540583	 -1.996625
H	 0.596740	 -1.056808	 -1.828949
H	 2.558038	 0.876024	 0.038374
H	 1.811077	 0.548559	 1.580563
H	 2.387128	 -0.783847	 0.587165

2 4 8 10 F

