%nprocshared=1
%mem=2GB
#HF/6-31G* nosymm scf=tight 

Mol

0 1
H	 -2.153054	 -2.250733	 0.000000
O	 -2.462445	 -1.355403	 0.000000
C	 -1.434260	 -0.483044	 0.000000
C	 -1.735254	 0.857869	 0.214627
C	 -0.124261	 -0.874194	 -0.202032
H	 -2.760142	 1.138314	 0.369249
C	 -0.725006	 1.797429	 0.225708
H	 0.122075	 -1.907620	 -0.369080
C	 0.884166	 0.086171	 -0.187945
H	 -0.965814	 2.831288	 0.392185
C	 0.596462	 1.423775	 0.024721
C	 2.252161	 -0.331057	 -0.400099
H	 1.384354	 2.152294	 0.032793
N	 3.326365	 -0.661384	 -0.567054

14 12 9 5 F

