%nprocshared=8
%mem=2GB
#B3LYP/6-31G* nosymm scf=tight
# opt=ModRedundant  EmpiricalDispersion=GD3

Mol

1 1
C	 0.165470	 -0.119687	 -0.205925
C	 0.189094	 1.037040	 0.595628
C	 0.341641	 0.916893	 1.973313
C	 0.479968	 -0.347168	 2.554896
C	 0.461571	 -1.497870	 1.760684
C	 0.300231	 -1.390978	 0.382909
C	 -0.000000	 -0.000000	 -1.658508
H	 0.039154	 2.017884	 0.153247
H	 0.342538	 1.806778	 2.594310
H	 0.602435	 -0.435751	 3.629972
H	 0.583056	 -2.476274	 2.214005
H	 0.329467	 -2.284513	 -0.234325
N	 -0.712589	 -0.905950	 -2.322235
N	 0.562846	 1.014262	 -2.309308
H	 0.402819	 1.192970	 -3.293798
H	 1.233439	 1.606232	 -1.836908
H	 -1.377189	 -1.485970	 -1.827091
H	 -0.673431	 -1.006470	 -3.329771

1 7 13 17 F
