%nprocshared=1
%mem=2GB
#HF/6-31G* nosymm scf=tight 

Mol

0 1
H	 2.795998	 0.478103	 -2.242676
O	 1.870462	 0.312158	 -2.354273
C	 1.214095	 0.418474	 -1.178574
C	 1.861568	 0.732695	 0.009428
C	 -0.152788	 0.201638	 -1.185181
H	 2.925373	 0.901061	 0.012383
C	 1.142511	 0.829796	 1.188919
H	 -0.654137	 -0.041142	 -2.102123
C	 -0.865228	 0.300799	 0.000000
H	 1.654549	 1.073579	 2.102026
C	 -0.223820	 0.614700	 1.191567
C	 -2.333960	 0.069074	 0.000000
H	 -0.784306	 0.689608	 2.106580
O	 -2.847347	 -1.003763	 0.000000
H	 -2.943845	 0.977528	 0.000000

4 3 2 1 F

