%nprocshared=1
%mem=2GB
#HF/6-31G* nosymm scf=tight 

Mol

0 1
H	 1.617697	 -1.770507	 -0.974511
C	 0.730818	 -1.191271	 -1.174473
O	 0.464886	 -0.454746	 -0.000158
H	 -0.088641	 -1.860416	 -1.408474
H	 0.915541	 -0.532008	 -2.014302
C	 -0.590998	 0.343045	 0.000118
O	 -1.699443	 -0.054298	 0.000227
H	 -0.340329	 1.404368	 0.000207
