%nprocshared=1
%mem=2GB
#HF/6-31G* nosymm scf=tight 

Mol

0 1
O	 -0.488453	 0.057968	 1.132425
C	 -0.451170	 -1.129930	 1.097049
C	 0.801727	 -1.959116	 0.945507
O	 -1.528589	 -1.897310	 1.185968
C	 1.124911	 -2.785238	 2.184071
H	 1.613075	 -1.280220	 0.700432
H	 0.669725	 -2.590969	 0.072237
H	 1.272053	 -2.149836	 3.048928
H	 2.030738	 -3.360307	 2.024106
H	 0.320287	 -3.472711	 2.414906
C	 -1.338410	 -3.257178	 1.562787
C	 -0.627327	 -3.949707	 0.419512
H	 -2.301881	 -3.705190	 1.764261
H	 -0.758069	 -3.292544	 2.474677
H	 -1.218899	 -3.900780	 -0.487575
H	 -0.461640	 -4.993554	 0.665641
H	 0.333419	 -3.485984	 0.226682

2 4 11 13 F

4 2 3 6 F

