%nprocshared=1
%mem=2GB
#HF/6-31G* nosymm scf=tight 

Mol

0 1
H	 -2.430793	 0.701392	 1.432367
O	 -1.700625	 0.103471	 1.365911
C	 -1.446259	 -0.474692	 2.620933
C	 -2.493619	 -1.503594	 3.032181
H	 -0.478855	 -0.952485	 2.534227
H	 -1.358302	 0.296741	 3.385089
C	 -2.832900	 -2.518072	 1.937379
H	 -2.135596	 -2.025970	 3.915532
H	 -3.396923	 -0.970107	 3.323386
C	 -3.570281	 -1.886022	 0.753487
H	 -3.441448	 -3.311602	 2.362052
H	 -1.915105	 -2.984318	 1.578761
C	 -2.954856	 -0.581646	 0.233682
H	 -3.625561	 -2.607079	 -0.060065
H	 -4.597453	 -1.687050	 1.051863
C	 -3.034785	 0.600176	 1.203932
H	 -1.908799	 -0.767171	 -0.001183
H	 -3.431421	 -0.309164	 -0.706784
C	 -4.465221	 1.099239	 1.418936
H	 -2.423259	 1.417801	 0.824941
H	 -2.611115	 0.323596	 2.166382
C	 -5.411106	 0.710962	 0.283063
H	 -4.847259	 0.703375	 2.357459
H	 -4.456195	 2.181939	 1.526468
H	 -5.467273	 -0.368187	 0.171231
H	 -6.416738	 1.077069	 0.465559
H	 -5.076338	 1.123259	 -0.664726

14 10 7 4 F

14 10 13 16 F

10 7 4 8 F

8 4 3 2 F

10 13 16 20 F

4 3 2 1 F

