%nprocshared=1
%mem=2GB
#HF/6-31G* nosymm scf=tight 

Mol

0 1
O	 -0.389695	 0.092980	 2.453461
C	 -0.833093	 0.610524	 1.479901
C	 -1.689737	 1.847648	 1.474314
O	 -0.632575	 0.154573	 0.251549
H	 -2.647636	 1.627754	 1.017121
H	 -1.833848	 2.193421	 2.486988
H	 -1.213112	 2.620317	 0.882227
C	 0.160891	 -1.019931	 0.106212
C	 1.589627	 -0.672828	 0.480843
H	 0.089836	 -1.367806	 -0.916050
H	 -0.238459	 -1.792301	 0.749618
C	 2.630984	 -1.648172	 -0.071135
H	 1.647075	 -0.653640	 1.567243
H	 1.807462	 0.335299	 0.138080
C	 2.432395	 -1.937967	 -1.558273
H	 3.626126	 -1.237554	 0.087564
H	 2.586189	 -2.576169	 0.489377
H	 3.181774	 -2.632076	 -1.925257
H	 2.505055	 -1.029649	 -2.149844
H	 1.456220	 -2.376423	 -1.745136

16 12 9 8 F

2 4 8 10 F

1 2 4 8 F

