%nprocshared=1
%mem=2GB
#HF/6-31G* nosymm scf=tight 

Mol

0 1
O	 1.092014	 -3.471724	 -4.442791
C	 2.139214	 -3.153289	 -3.966970
C	 2.234572	 -2.719049	 -2.514851
C	 3.421142	 -3.195982	 -4.768352
C	 1.569156	 -1.348846	 -2.307710
H	 3.286655	 -2.652615	 -2.259878
H	 1.774712	 -3.457348	 -1.864106
C	 0.149006	 -1.302371	 -2.876593
H	 1.562055	 -1.133589	 -1.245166
H	 2.170283	 -0.574242	 -2.781399
C	 0.075323	 -1.399736	 -4.404711
H	 -0.336989	 -0.384346	 -2.551379
H	 -0.427038	 -2.120409	 -2.448999
C	 -1.053427	 -2.288511	 -4.930067
H	 1.023541	 -1.787350	 -4.768483
H	 -0.024340	 -0.400645	 -4.824201
H	 -0.984148	 -3.291584	 -4.518035
H	 -1.004790	 -2.372263	 -6.011279
H	 -2.032469	 -1.894716	 -4.678683
H	 3.800747	 -2.186677	 -4.904247
H	 3.238657	 -3.644037	 -5.735166
H	 4.186352	 -3.757251	 -4.239925

6 3 2 1 F

6 3 5 8 F

3 5 8 12 F

