%nprocshared=1
%mem=2GB
#HF/6-31G* nosymm scf=tight 

Mol

0 1
O	 -0.746221	 0.944441	 -1.093155
C	 0.140502	 1.681556	 -1.381988
C	 1.609735	 1.417451	 -1.159507
O	 -0.054281	 2.863688	 -1.952602
C	 2.049131	 0.024965	 -1.601383
H	 2.162039	 2.190407	 -1.687005
H	 1.812282	 1.577775	 -0.104033
C	 1.654501	 -0.277518	 -3.047805
H	 1.612990	 -0.715707	 -0.938291
H	 3.124975	 -0.064430	 -1.487059
C	 0.158488	 -0.545152	 -3.206933
H	 1.940980	 0.556899	 -3.684794
H	 2.214669	 -1.139431	 -3.404720
H	 -0.428406	 0.312160	 -2.890350
H	 -0.094639	 -0.756437	 -4.241129
H	 -0.152631	 -1.396650	 -2.608772
C	 1.065166	 3.726192	 -2.042424
H	 1.444631	 3.960080	 -1.058153
H	 0.709774	 4.621320	 -2.528624
H	 1.850932	 3.269393	 -2.626729

9 5 8 12 F

1 2 3 6 F

9 5 3 6 F

