%nprocshared=1
%mem=2GB
#HF/6-31G* nosymm scf=tight 

Mol

0 1
H	 -2.698709	 -0.000305	 0.034435
C	 -1.693833	 0.000034	 0.434417
O	 -0.828952	 -0.000968	 -0.659236
H	 -1.574200	 0.882896	 1.055746
H	 -1.574147	 -0.881698	 1.057355
C	 0.559449	 -0.000018	 -0.420814
C	 1.078811	 -1.367681	 0.018135
C	 1.354204	 0.574245	 -1.591944
H	 0.665055	 0.679355	 0.416641
H	 0.461183	 -1.766343	 0.815728
H	 2.095532	 -1.277458	 0.387423
H	 1.090532	 -2.083952	 -0.797330
H	 0.926778	 1.519279	 -1.909238
H	 2.382731	 0.749356	 -1.292056
H	 1.373067	 -0.097165	 -2.444407

6 3 2 1 F

