%nprocshared=1
%mem=2GB
#HF/6-31G* nosymm scf=tight 

Mol

0 1
O	 -0.306771	 1.390102	 -0.319895
C	 0.140502	 1.681556	 -1.381988
C	 0.988523	 0.787202	 -2.253129
O	 -0.054281	 2.863688	 -1.952602
C	 0.430607	 -0.625443	 -2.396328
H	 1.084333	 1.272567	 -3.220598
H	 1.988776	 0.774329	 -1.828768
C	 -1.025344	 -0.630787	 -2.864883
H	 0.512927	 -1.141442	 -1.444764
H	 1.044479	 -1.183943	 -3.096144
C	 -1.999417	 -0.205642	 -1.766959
H	 -1.134364	 0.033116	 -3.720117
H	 -1.290454	 -1.625968	 -3.216171
H	 -1.781758	 0.799710	 -1.418325
H	 -3.024064	 -0.217698	 -2.125051
H	 -1.939405	 -0.871576	 -0.911056
C	 1.065166	 3.726192	 -2.042424
H	 1.444631	 3.960080	 -1.058153
H	 0.709774	 4.621320	 -2.528624
H	 1.850932	 3.269393	 -2.626729

9 5 8 12 F

1 2 3 6 F

9 5 3 6 F

