%nprocshared=1
%mem=2GB
#HF/6-31G* nosymm scf=tight opt=ModRedundant

Mol

0 1
H	 -1.606000	 -2.105000	 -0.000000
C	 -1.099000	 -1.157000	 -0.000000
N	 0.218000	 -1.178000	 -0.000000
C	 -1.810000	 0.031000	 0.000000
C	 0.848000	 -0.015000	 0.000000
H	 -2.885000	 0.036000	 0.000000
N	 -1.194000	 1.196000	 0.000000
C	 0.123000	 1.173000	 -0.000000
C	 2.353000	 -0.036000	 0.000000
H	 0.627000	 2.123000	 -0.000000
H	 2.720000	 -0.561000	 -0.875000
H	 2.765000	 0.966000	 -0.000000
H	 2.720000	 -0.561000	 0.875000
