%nprocshared=1
%mem=2GB
#HF/6-31G* nosymm scf=tight 

Mol

0 1
H	 1.438064	 -4.770462	 4.449118
C	 1.528321	 -5.430385	 3.591868
C	 2.815763	 -6.250809	 3.659501
H	 0.655383	 -6.076247	 3.578315
H	 1.499494	 -4.815423	 2.696441
C	 2.977900	 -7.188155	 2.460791
H	 2.822930	 -6.831385	 4.576279
H	 3.669554	 -5.576662	 3.707020
C	 2.728666	 -6.512021	 1.112461
H	 3.975798	 -7.612229	 2.463075
H	 2.281096	 -8.017249	 2.561334
C	 3.812805	 -5.529833	 0.693904
H	 2.673612	 -7.265467	 0.328205
H	 1.765220	 -6.007183	 1.103021
C	 3.475324	 -4.538016	 -0.405696
O	 4.897262	 -5.544387	 1.194052
C	 3.142513	 -5.197708	 -1.752249
H	 4.329508	 -3.880152	 -0.511995
H	 2.628828	 -3.935976	 -0.080615
C	 3.906992	 -6.506058	 -1.962969
H	 2.073565	 -5.394231	 -1.800676
H	 3.371148	 -4.517137	 -2.568350
C	 3.584233	 -7.172245	 -3.299729
H	 3.675183	 -7.191428	 -1.151430
H	 4.975620	 -6.311267	 -1.903941
H	 2.526789	 -7.408725	 -3.374670
H	 3.837980	 -6.523738	 -4.133494
H	 4.139105	 -8.097216	 -3.419829

10 6 3 2 F

16 12 15 17 F

