%nprocshared=1
%mem=2GB
#HF/6-31G* nosymm scf=tight 

Mol

0 1
H	 -2.675985	 0.291120	 0.753399
O	 -1.732576	 0.305735	 0.683843
C	 -1.350486	 1.104354	 -0.407151
C	 -1.542612	 2.596021	 -0.156663
H	 -0.301791	 0.893698	 -0.573090
H	 -1.886787	 0.803070	 -1.306256
C	 -0.993384	 3.076992	 1.188656
H	 -1.064661	 3.145539	 -0.963483
H	 -2.607792	 2.814568	 -0.211398
C	 -1.784977	 2.530355	 2.380036
H	 -1.006471	 4.163109	 1.211962
H	 0.049401	 2.773713	 1.283328
C	 -2.079727	 1.026992	 2.322043
H	 -1.249131	 2.756757	 3.300068
H	 -2.730846	 3.064455	 2.441433
C	 -3.034785	 0.600176	 1.203932
H	 -1.137288	 0.498723	 2.193375
H	 -2.479247	 0.701808	 3.281457
C	 -4.465221	 1.099239	 1.418936
H	 -3.041398	 -0.486566	 1.132797
H	 -2.675749	 0.966087	 0.245025
C	 -5.411106	 0.710962	 0.283063
H	 -4.847259	 0.703375	 2.357459
H	 -4.456195	 2.181939	 1.526468
H	 -5.467273	 -0.368187	 0.171231
H	 -6.416738	 1.077069	 0.465559
H	 -5.076338	 1.123259	 -0.664726

14 10 7 4 F

14 10 13 16 F

10 7 4 8 F

8 4 3 2 F

10 13 16 20 F

4 3 2 1 F

