%nprocshared=1
%mem=2GB
#HF/6-31G* nosymm scf=tight 

Mol

0 1
O	 1.122133	 -0.334818	 0.221242
C	 0.028650	 0.075053	 -0.000277
C	 -1.233602	 -0.752807	 0.000328
O	 -0.228721	 1.345065	 -0.284410
C	 -2.501530	 0.091881	 0.000126
H	 -1.193807	 -1.406641	 -0.865785
H	 -1.193516	 -1.405779	 0.867015
H	 -2.545121	 0.729328	 -0.874513
H	 -3.377167	 -0.548497	 0.000561
H	 -2.544818	 0.730135	 0.874258
C	 0.874563	 2.232312	 -0.318290
H	 1.366534	 2.263372	 0.643173
H	 0.466707	 3.201067	 -0.561252
H	 1.585774	 1.925565	 -1.071654

11 4 2 3 F

