%nprocshared=1
%mem=2GB
#HF/6-31G* nosymm scf=tight 

Mol

0 1
H	 -3.898779	 -1.594780	 -0.953725
C	 -2.830285	 -1.476016	 -0.985361
C	 -2.153741	 -1.622654	 -2.186998
C	 -2.134227	 -1.176888	 0.175225
H	 -2.694770	 -1.854644	 -3.086351
C	 -0.779868	 -1.469798	 -2.226883
H	 -2.660369	 -1.063590	 1.105785
C	 -0.758940	 -1.023427	 0.137687
H	 -0.239859	 -1.579657	 -3.147748
C	 -0.077958	 -1.169756	 -1.065065
H	 -0.216275	 -0.791937	 1.033371
C	 1.401047	 -1.015282	 -1.161704
O	 1.970282	 -0.730723	 0.000018
O	 2.017825	 -1.133336	 -2.173884
C	 3.377318	 -0.566646	 -0.000065
H	 3.695437	 -0.028981	 -0.881264
H	 3.789299	 -1.563704	 0.000236
H	 3.695516	 -0.028316	 0.880770

10 12 13 15 F

13 12 10 6 F

