%nprocshared=1
%mem=2GB
#HF/6-31G* nosymm scf=tight 

Mol

0 1
H	 0.520913	 -3.355335	 -0.750069
O	 0.895837	 -2.618051	 -0.278264
C	 0.102382	 -1.563045	 -0.462125
C	 0.624473	 -0.343591	 0.253101
O	 -0.886133	 -1.623171	 -1.118051
C	 -0.265902	 0.883932	 0.072916
H	 0.740303	 -0.614115	 1.297502
H	 1.628992	 -0.158063	 -0.118751
C	 -1.728698	 0.646073	 0.462102
H	 -0.209144	 1.219470	 -0.958188
H	 0.135059	 1.692851	 0.673903
C	 -2.166039	 1.312403	 1.769656
H	 -1.883640	 -0.426673	 0.551374
H	 -2.378492	 0.978016	 -0.346438
C	 -1.752534	 2.781946	 1.846683
H	 -3.247196	 1.236141	 1.866230
H	 -1.744499	 0.783024	 2.620211
H	 -2.071558	 3.231632	 2.781733
H	 -2.192341	 3.355798	 1.036070
H	 -0.673584	 2.889425	 1.779217

16 12 9 6 F

7 4 6 10 F

5 3 4 7 F

1 2 3 5 F

