%nprocshared=1
%mem=2GB
#HF/6-31G* nosymm scf=tight 

Mol

0 1
H	 3.083879	 -1.346558	 0.395444
O	 2.172668	 -1.603300	 0.415122
C	 1.365383	 -0.540424	 0.207814
C	 0.221111	 -0.616683	 -0.575851
C	 1.713464	 0.656394	 0.809393
H	 -0.047982	 -1.549036	 -1.043121
C	 -0.573594	 0.502779	 -0.757291
H	 2.597057	 0.716663	 1.414957
C	 0.912397	 1.772404	 0.622659
H	 -1.456696	 0.431541	 -1.365924
C	 -0.233301	 1.702945	 -0.159850
C	 1.280547	 3.061339	 1.266074
H	 -0.849142	 2.573726	 -0.299439
O	 2.135204	 3.187022	 2.083576
H	 0.698049	 3.925627	 0.932979

11 9 12 14 F

