%nprocshared=1
%mem=2GB
#HF/6-31G* nosymm scf=tight 

Mol

0 1
O	 -2.042549	 -1.228399	 -0.269030
C	 -1.653912	 -0.146171	 0.050137
C	 -0.332303	 0.024011	 0.778412
C	 -2.438579	 1.106236	 -0.272369
C	 0.845713	 -0.001731	 -0.208243
H	 -0.323783	 0.953829	 1.340327
H	 -0.235459	 -0.796807	 1.480410
C	 2.201152	 0.119568	 0.489685
H	 0.739947	 0.807385	 -0.928817
H	 0.804264	 -0.928447	 -0.772707
C	 2.337536	 -0.823737	 1.684165
H	 2.995478	 -0.084219	 -0.225117
H	 2.342404	 1.145701	 0.820844
H	 2.234720	 -1.861236	 1.379078
H	 1.575731	 -0.621957	 2.431414
H	 3.306382	 -0.713879	 2.160919
H	 -3.277823	 0.863061	 -0.908988
H	 -1.806773	 1.843019	 -0.759671
H	 -2.802853	 1.554979	 0.648059

11 8 5 9 F

5 3 2 4 F

