%nprocshared=1
%mem=2GB
#HF/6-31G* nosymm scf=tight 

Mol

0 1
H	 2.762751	 1.921259	 -1.173584
N	 2.000309	 1.273642	 -1.226681
C	 1.865559	 0.531981	 0.018834
H	 2.201831	 0.651008	 -1.985988
C	 0.645745	 -0.382037	 -0.029944
H	 1.740934	 1.253718	 0.820347
H	 2.751575	 -0.058782	 0.264545
C	 -0.679275	 0.379305	 0.025956
H	 0.698998	 -0.976915	 -0.937203
H	 0.693479	 -1.083846	 0.802235
C	 -1.771008	 -0.246377	 -0.844110
H	 -0.517402	 1.408829	 -0.289841
H	 -1.028178	 0.428532	 1.056340
C	 -3.092044	 0.519958	 -0.788395
H	 -1.425173	 -0.295397	 -1.874260
H	 -1.936806	 -1.274464	 -0.529143
H	 -2.966217	 1.543505	 -1.130207
H	 -3.845131	 0.052578	 -1.415308
H	 -3.481851	 0.556683	 0.225061

6 3 5 9 F

12 8 11 15 F

1 2 3 6 F

