%nprocshared=1
%mem=2GB
#HF/6-31G* nosymm scf=tight 

Mol

0 1
H	 -0.216825	 0.021369	 -3.357402
C	 0.374198	 0.036393	 -2.447010
C	 -0.521757	 -0.028637	 -1.217342
H	 0.969602	 0.942322	 -2.434777
H	 1.053364	 -0.811668	 -2.481329
N	 0.263400	 0.031178	 0.000000
H	 -1.199035	 0.820290	 -1.219355
H	 -1.147901	 -0.924895	 -1.265384
C	 -0.521757	 -0.028637	 1.217342
H	 0.935769	 -0.712709	 0.000000
C	 -0.720237	 1.361633	 1.806242
H	 -1.488607	 -0.456809	 0.969837
H	 -0.074774	 -0.686270	 1.969251
H	 -1.202715	 2.012975	 1.086291
H	 -1.333039	 1.318687	 2.701215
H	 0.231470	 1.809897	 2.080039
