%nprocshared=1
%mem=2GB
#HF/6-31G* nosymm scf=tight 

Mol

0 1
O	 -0.806752	 -1.114546	 1.082146
C	 -0.561929	 -0.074560	 0.531515
C	 -1.597472	 1.034011	 0.503089
N	 0.623947	 0.147590	 -0.102813
H	 -1.868528	 1.298769	 -0.513038
H	 -2.472791	 0.671041	 1.019920
H	 -1.237628	 1.928840	 0.999450
C	 1.768500	 -0.665072	 0.259756
C	 0.927992	 1.344595	 -0.855795
H	 2.573271	 -0.490790	 -0.445926
H	 1.491816	 -1.704707	 0.236411
H	 2.127785	 -0.419103	 1.256669
H	 1.608400	 1.093513	 -1.660805
H	 0.041953	 1.770792	 -1.298768
H	 1.405017	 2.103134	 -0.237831

2 4 8 10 F

