%nprocshared=1
%mem=2GB
#HF/6-31G* nosymm scf=tight 

Mol

0 1
H	 -1.631476	 2.256091	 0.543311
C	 -1.708171	 1.443783	 1.255786
C	 -0.406864	 0.653577	 1.326018
H	 -2.530206	 0.811465	 0.943192
H	 -1.948383	 1.862282	 2.227605
C	 -0.000005	 0.033229	 -0.000001
H	 -0.479813	 -0.145504	 2.061236
H	 0.411068	 1.286442	 1.664934
C	 1.290528	 -0.768786	 0.000276
O	 -0.657298	 0.168229	 -0.986371
C	 2.545731	 0.095645	 -0.000061
H	 1.275672	 -1.427874	 -0.865626
H	 1.275566	 -1.427086	 0.866768
H	 2.577157	 0.734767	 -0.874036
H	 3.433520	 -0.528139	 0.000137
H	 2.577172	 0.735117	 0.873581
