%nprocshared=1
%mem=2GB
#HF/6-31G* nosymm scf=tight 

Mol

0 1
O	 -2.042549	 -1.228399	 -0.269030
C	 -1.653912	 -0.146171	 0.050137
C	 -0.332303	 0.024011	 0.778412
C	 -2.438579	 1.106236	 -0.272369
C	 -0.491851	 -0.262188	 2.279914
H	 0.423294	 -0.631976	 0.355166
H	 -0.008405	 1.049202	 0.637000
C	 -1.343840	 0.789172	 2.992506
H	 0.488081	 -0.309214	 2.751724
H	 -0.942083	 -1.243085	 2.399389
C	 -2.644148	 1.097680	 2.251407
H	 -1.573373	 0.446851	 3.999261
H	 -0.765071	 1.703067	 3.103822
H	 -3.261131	 0.208914	 2.154038
H	 -2.445550	 1.473237	 1.251928
H	 -3.225897	 1.847869	 2.777535
H	 -3.277823	 0.863061	 -0.908988
H	 -1.806773	 1.843019	 -0.759671
H	 -2.802853	 1.554979	 0.648059

11 8 5 9 F

9 5 3 2 F

