%nprocshared=1
%mem=2GB
#HF/6-31G* nosymm scf=tight 

Mol

0 1
H	 -3.042581	 -0.665861	 0.004336
O	 -2.245037	 -1.176175	 0.000806
C	 -1.162163	 -0.365336	 0.001020
C	 -0.216971	 -0.388175	 1.010683
C	 -1.027475	 0.513194	 -1.067098
H	 -0.321454	 -1.066670	 1.840563
C	 0.865370	 0.477577	 0.940518
H	 -1.781661	 0.505799	 -1.832778
C	 0.052884	 1.375213	 -1.136811
H	 1.601030	 0.464151	 1.725160
C	 1.005108	 1.352661	 -0.117629
C	 0.213085	 2.314137	 -2.309781
H	 1.848456	 2.019430	 -0.156509
H	 0.519620	 3.301530	 -1.981327
H	 -0.712174	 2.416127	 -2.864178
H	 0.971952	 1.947646	 -2.995456
