%nprocshared=1
%mem=2GB
#HF/6-31G* nosymm scf=tight 

Mol

0 1
H	 -3.420663	 1.227371	 -1.044276
O	 -3.452007	 0.283848	 -0.965577
C	 -3.181085	 -0.079926	 0.364119
C	 -1.765924	 0.277073	 0.805136
H	 -3.327791	 -1.152017	 0.410903
H	 -3.905698	 0.375695	 1.036898
C	 -0.677594	 -0.417312	 -0.014550
H	 -1.637766	 1.358238	 0.744969
H	 -1.659588	 0.017670	 1.857098
C	 -0.699291	 -0.027169	 -1.493907
H	 -0.789697	 -1.492816	 0.082573
H	 0.295168	 -0.172580	 0.408810
C	 -0.791605	 1.486149	 -1.707055
H	 0.194662	 -0.416324	 -1.975389
H	 -1.544346	 -0.509786	 -1.983362
C	 -2.114643	 2.117673	 -1.258832
H	 -0.625060	 1.711915	 -2.759190
H	 0.020388	 1.964186	 -1.163029
C	 -2.105904	 3.646786	 -1.212545
H	 -2.357685	 1.740922	 -0.268236
H	 -2.914501	 1.780842	 -1.915319
H	 -1.307392	 4.013009	 -0.572703
H	 -3.043862	 4.025885	 -0.818392
H	 -1.967596	 4.082502	 -2.196510

20 16 13 17 F

17 13 10 7 F

13 10 7 11 F

1 2 3 5 F

7 4 3 2 F

