%nprocshared=1
%mem=2GB
#HF/6-31G* nosymm scf=tight 

Mol

0 1
O	 -0.644987	 -1.652990	 1.664992
C	 -1.514987	 -1.440192	 0.882411
C	 -2.775474	 -2.260464	 0.784449
O	 -1.481751	 -0.454642	 0.000584
H	 -3.283566	 -2.233162	 1.740984
H	 -3.433286	 -1.897333	 0.008654
H	 -2.505502	 -3.290827	 0.586090
C	 -0.334255	 0.388708	 0.000906
C	 0.891947	 -0.504646	 0.000751
H	 -0.365390	 1.025305	 -0.873475
H	 -0.365484	 1.024911	 0.875569
C	 0.838286	 -1.556101	 -1.109219
H	 0.972990	 -0.989855	 0.969484
H	 1.777328	 0.114301	 -0.115286
C	 1.164494	 -0.982723	 -2.489491
H	 1.535525	 -2.360704	 -0.882157
H	 -0.151674	 -2.008235	 -1.134461
C	 1.112195	 -2.033232	 -3.597895
H	 2.153590	 -0.530816	 -2.466151
H	 0.467242	 -0.180079	 -2.718997
H	 1.823533	 -2.833333	 -3.413905
H	 1.347904	 -1.596925	 -4.563459
H	 0.124455	 -2.479707	 -3.668882

13 9 8 10 F

2 4 8 10 F

19 15 12 16 F

1 2 4 8 F

