%nprocshared=1
%mem=2GB
#HF/6-31G* nosymm scf=tight 

Mol

0 1
H	 -2.558053	 0.627336	 0.757589
O	 -1.636522	 0.481665	 0.914533
C	 -0.948895	 1.706029	 0.868072
C	 -1.208602	 2.587860	 2.084482
H	 0.102070	 1.451640	 0.818741
H	 -1.193831	 2.246194	 -0.045716
C	 -1.083970	 1.854987	 3.422477
H	 -0.513447	 3.423031	 2.059677
H	 -2.209831	 3.005604	 1.992844
C	 -2.192764	 0.820602	 3.635649
H	 -1.104768	 2.580926	 4.230528
H	 -0.115871	 1.356463	 3.473458
C	 -2.455110	 -0.098457	 2.436964
H	 -1.954378	 0.214913	 4.508094
H	 -3.114923	 1.346072	 3.874826
C	 -3.034785	 0.600176	 1.203932
H	 -1.516271	 -0.572142	 2.157646
H	 -3.120937	 -0.904666	 2.741166
C	 -4.465221	 1.099239	 1.418936
H	 -3.018605	 -0.088453	 0.360345
H	 -2.407821	 1.442523	 0.921677
C	 -5.411106	 0.710962	 0.283063
H	 -4.847259	 0.703375	 2.357459
H	 -4.456195	 2.181939	 1.526468
H	 -5.467273	 -0.368187	 0.171231
H	 -6.416738	 1.077069	 0.465559
H	 -5.076338	 1.123259	 -0.664726

14 10 7 4 F

14 10 13 16 F

10 7 4 8 F

8 4 3 2 F

10 13 16 20 F

4 3 2 1 F

