%nprocshared=1
%mem=2GB
#HF/6-31G* nosymm scf=tight 

Mol

0 1
H	 -2.066749	 -0.753811	 1.952886
C	 -1.452267	 -0.464798	 1.123254
C	 -1.953665	 0.369424	 0.069595
C	 -0.180464	 -0.875421	 1.037675
H	 -2.971316	 0.715593	 0.109567
C	 -1.166059	 0.717727	 -0.957938
H	 0.270359	 -1.501337	 1.784262
N	 0.640212	 -0.532897	 -0.000111
H	 -1.506227	 1.339479	 -1.762963
C	 0.217855	 0.270805	 -1.050804
C	 2.010177	 -1.032049	 0.000042
O	 0.957934	 0.561761	 -1.957354
H	 2.187698	 -1.635381	 -0.882279
H	 2.677579	 -0.189247	 -0.001871
H	 2.188882	 -1.632203	 0.884288
