%nprocshared=1
%mem=2GB
#HF/6-31G* nosymm scf=tight 
prop=(read,field)

Mol

0 1
H	 -2.783486	 0.541067	 -0.482788
O	 -2.315999	 -0.143643	 -0.024266
C	 -0.945361	 -0.064139	 -0.333162
H	 -0.813585	 -0.223056	 -1.403236
C	 -0.233011	 -1.184060	 0.407202
C	 -0.355634	 1.302930	 0.054519
H	 -0.319034	 -0.992908	 1.473520
H	 -0.742621	 -2.122042	 0.217950
C	 1.248312	 -1.270728	 -0.013052
H	 -0.546354	 2.018379	 -0.742945
H	 -0.891139	 1.656779	 0.930145
C	 1.156215	 1.235111	 0.355901
H	 1.825174	 -1.683255	 0.809107
H	 1.357572	 -1.965932	 -0.840366
C	 1.828034	 0.099890	 -0.419279
H	 1.625899	 2.185613	 0.123521
H	 1.309228	 1.071204	 1.419535
H	 2.901237	 0.112633	 -0.255834
H	 1.681607	 0.263404	 -1.484611

@grid.dat /N
