%nprocshared=1
%mem=2GB
#HF/6-31G* nosymm scf=tight 

Mol

0 1
O	 -0.682937	 1.318834	 -0.186099
C	 -0.860635	 0.152188	 -0.042321
C	 -2.173363	 -0.477127	 0.338347
O	 0.083258	 -0.765189	 -0.202595
H	 -2.477673	 -1.180929	 -0.427595
H	 -2.923125	 0.290956	 0.455536
H	 -2.058825	 -1.029004	 1.264191
C	 -0.003796	 -1.638691	 -1.326078
C	 -1.204329	 -2.560953	 -1.222159
H	 0.914930	 -2.198757	 -1.412155
H	 -0.095242	 -0.978254	 -2.176349
H	 -1.286960	 -3.159184	 -2.124390
H	 -1.103997	 -3.231288	 -0.377794
H	 -2.117645	 -1.986938	 -1.109130

10 8 4 2 F

