%nprocshared=1
%mem=2GB
#HF/6-31G* nosymm scf=tight 

Mol

0 1
H	 6.381256	 -0.158895	 -0.015136
C	 6.150211	 -1.018352	 0.606535
C	 7.156544	 -2.146803	 0.385022
H	 6.156020	 -0.689135	 1.641390
H	 5.139960	 -1.338461	 0.366282
C	 6.855557	 -3.378135	 1.242369
H	 8.155044	 -1.785503	 0.608767
H	 7.152623	 -2.430752	 -0.666191
C	 5.391979	 -3.817548	 1.196289
H	 7.481588	 -4.204421	 0.924594
H	 7.115450	 -3.163180	 2.276434
C	 4.964761	 -4.436609	 -0.126394
H	 5.209561	 -4.568742	 1.963232
H	 4.729511	 -2.988183	 1.433915
C	 3.475324	 -4.538016	 -0.405696
O	 5.764778	 -4.846625	 -0.912692
C	 3.142513	 -5.197708	 -1.752249
H	 3.077758	 -3.530724	 -0.373804
H	 3.010537	 -5.105855	 0.398180
C	 3.906992	 -6.506058	 -1.962969
H	 2.073565	 -5.394231	 -1.800676
H	 3.371148	 -4.517137	 -2.568350
C	 3.584233	 -7.172245	 -3.299729
H	 3.675183	 -7.191428	 -1.151430
H	 4.975620	 -6.311267	 -1.903941
H	 2.526789	 -7.408725	 -3.374670
H	 3.837980	 -6.523738	 -4.133494
H	 4.139105	 -8.097216	 -3.419829

10 6 3 2 F

12 15 17 21 F

