%nprocshared=1
%mem=2GB
#HF/6-31G* nosymm scf=tight 

Mol

0 1
O	 1.841027	 1.176456	 -1.265323
C	 0.788116	 1.716284	 -1.379704
C	 -0.536502	 1.166532	 -0.909567
O	 0.640172	 2.906476	 -1.947763
C	 -0.492403	 0.610212	 0.510365
H	 -1.268737	 1.964567	 -0.997239
H	 -0.843029	 0.404997	 -1.621483
C	 0.064243	 1.621997	 1.513110
H	 0.111422	 -0.291696	 0.522441
H	 -1.491813	 0.307969	 0.807243
C	 1.577259	 1.812247	 1.392926
H	 -0.429595	 2.582475	 1.373101
H	 -0.176943	 1.301322	 2.525473
C	 2.021972	 2.177817	 -0.022645
H	 2.079996	 0.899665	 1.705319
H	 1.897658	 2.588540	 2.084193
H	 1.746113	 1.403431	 -0.732885
H	 3.098632	 2.306137	 -0.075466
H	 1.561919	 3.105569	 -0.351185
C	 1.792514	 3.724689	 -2.034891
H	 2.180449	 3.940881	 -1.049855
H	 1.472688	 4.634305	 -2.518819
H	 2.560106	 3.239076	 -2.620117

15 11 8 12 F

9 5 8 12 F

1 2 3 6 F

9 5 3 6 F

