%nprocshared=1
%mem=2GB
#HF/6-31G* nosymm scf=tight 

Mol

0 1
H	 2.866480	 -0.465706	 0.876907
C	 2.405773	 -0.024801	 0.000000
N	 0.988830	 -0.304158	 0.000000
H	 2.866480	 -0.465706	 -0.876907
H	 2.629928	 1.045948	 0.000000
C	 0.400889	 -0.182629	 -1.321183
C	 0.264583	 0.508736	 0.959499
H	 0.500947	 0.834143	 -1.714455
H	 0.917111	 -0.851998	 -2.002142
C	 -1.071999	 -0.553159	 -1.263761
H	 0.680996	 0.345615	 1.948558
H	 0.354708	 1.575887	 0.732419
C	 -1.204690	 0.119871	 0.956440
H	 -1.547402	 -0.383072	 -2.220881
H	 -1.173587	 -1.606313	 -1.007795
O	 -1.750608	 0.236023	 -0.327474
H	 -1.775802	 0.775411	 1.600735
H	 -1.312521	 -0.901617	 1.316864
