%nprocshared=1
%mem=2GB
#HF/6-31G* nosymm scf=tight 

Mol

0 1
H	 2.372702	 -1.886292	 0.601856
N	 1.386613	 -1.716537	 0.615048
C	 0.848955	 -1.743259	 -0.732884
C	 1.097149	 -0.457734	 1.277120
H	 1.071970	 -2.705333	 -1.181712
H	 1.278586	 -0.966277	 -1.369560
C	 -0.658279	 -1.545800	 -0.672172
H	 1.499902	 -0.488859	 2.283892
H	 1.541813	 0.397108	 0.762183
C	 -0.410238	 -0.261071	 1.336586
H	 -1.110294	 -2.402878	 -0.164041
H	 -1.060491	 -1.508652	 -1.679343
N	 -0.975995	 -0.298722	 0.000000
H	 -0.633323	 0.703864	 1.780073
H	 -0.845635	 -1.032077	 1.979297
C	 -2.393863	 -0.024976	 0.000000
H	 -2.854032	 -0.467193	 -0.876721
H	 -2.854032	 -0.467193	 0.876721
H	 -2.623281	 1.044943	 0.000000
