%nprocshared=1
%mem=2GB
#HF/6-31G* nosymm scf=tight 

Mol

0 1
H	 -3.420663	 1.227371	 -1.044276
O	 -3.452007	 0.283848	 -0.965577
C	 -3.181085	 -0.079926	 0.364119
C	 -1.765924	 0.277073	 0.805136
H	 -3.327791	 -1.152017	 0.410903
H	 -3.905698	 0.375695	 1.036898
C	 -0.677594	 -0.417312	 -0.014550
H	 -1.637766	 1.358238	 0.744969
H	 -1.659588	 0.017670	 1.857098
C	 0.695121	 0.243292	 0.128394
H	 -0.971496	 -0.429447	 -1.059626
H	 -0.610748	 -1.458815	 0.295604
C	 1.071890	 0.518961	 1.586522
H	 1.444354	 -0.394333	 -0.334752
H	 0.705816	 1.180133	 -0.427321
C	 0.207874	 1.576204	 2.283565
H	 2.117074	 0.820176	 1.637075
H	 0.997768	 -0.410859	 2.146662
C	 0.397346	 1.653560	 3.799653
H	 -0.836864	 1.359617	 2.074037
H	 0.408727	 2.551362	 1.844329
H	 0.215191	 0.688543	 4.265163
H	 -0.293747	 2.366677	 4.238619
H	 1.400840	 1.966434	 4.068494

20 16 13 17 F

17 13 10 7 F

13 10 7 11 F

1 2 3 5 F

7 4 3 2 F

