%nprocshared=1
%mem=2GB
#HF/6-31G* nosymm scf=tight 

Mol

0 1
O	 -1.493071	 -1.357455	 0.571292
C	 -0.451170	 -1.129930	 1.097049
C	 0.801727	 -1.959116	 0.945507
O	 -0.250452	 -0.097240	 1.903814
C	 1.124911	 -2.785238	 2.184071
H	 1.613075	 -1.280220	 0.700432
H	 0.669725	 -2.590969	 0.072237
H	 1.272053	 -2.149836	 3.048928
H	 2.030738	 -3.360307	 2.024106
H	 0.320287	 -3.472711	 2.414906
C	 -1.350177	 0.775434	 2.141395
C	 -1.631145	 1.513490	 0.849636
H	 -1.094073	 1.455209	 2.942583
H	 -2.201807	 0.190529	 2.461088
H	 -0.766882	 2.090040	 0.540124
H	 -2.466206	 2.192902	 0.986465
H	 -1.880753	 0.818523	 0.055928

2 4 11 13 F

11 4 2 3 F

