%nprocshared=1
%mem=2GB
#HF/6-31G* nosymm scf=tight 

Mol

0 1
H	 -0.216825	 0.021369	 -3.357402
C	 0.374198	 0.036393	 -2.447010
C	 -0.521757	 -0.028637	 -1.217342
H	 0.969602	 0.942322	 -2.434777
H	 1.053364	 -0.811668	 -2.481329
N	 0.263400	 0.031178	 0.000000
H	 -1.199035	 0.820290	 -1.219355
H	 -1.147901	 -0.924895	 -1.265384
C	 -0.521757	 -0.028637	 1.217342
H	 0.935769	 -0.712709	 0.000000
C	 0.023168	 0.933238	 2.264672
H	 -1.542310	 0.248129	 0.969837
H	 -0.567103	 -1.039421	 1.634358
H	 0.032908	 1.946789	 1.879987
H	 -0.583192	 0.909062	 3.164721
H	 1.039932	 0.670600	 2.545498
