%nprocshared=1
%mem=2GB
#HF/6-31G* nosymm scf=tight 

Mol

0 1
H	 -1.725254	 1.711381	 -0.614277
C	 -1.028093	 1.474388	 0.182682
N	 -0.528168	 0.128977	 -0.000000
H	 -1.565819	 1.539004	 1.121677
H	 -0.247907	 2.240267	 0.180600
C	 0.248044	 -0.037491	 -1.209632
H	 0.019888	 -0.138780	 0.793076
H	 0.998722	 0.743888	 -1.266824
H	 -0.398417	 0.061950	 -2.074060
H	 0.763621	 -0.999315	 -1.275517
