%nprocshared=1
%mem=2GB
#HF/6-31G* nosymm scf=tight 

Mol

0 1
H	 -0.367348	 2.047014	 -0.308205
C	 0.352277	 1.337084	 0.083769
N	 -0.000016	 0.000074	 -0.335546
H	 1.328359	 1.600444	 -0.307950
H	 0.381933	 1.450534	 1.172486
C	 -1.052475	 -0.561751	 0.479900
C	 -0.318789	 -0.057952	 -1.743797
H	 -1.239922	 -1.587429	 0.182917
H	 -0.748896	 -0.565823	 1.520711
H	 -1.994578	 -0.009027	 0.403598
H	 0.520276	 0.305539	 -2.326222
H	 -0.508003	 -1.084683	 -2.036132
H	 -1.198522	 0.537745	 -2.008641
