%nprocshared=1
%mem=2GB
#HF/6-31G* nosymm scf=tight 

Mol

0 1
H	 -2.273092	 1.173159	 0.000295
O	 -1.438904	 1.618192	 0.000114
C	 -0.409536	 0.736003	 0.000030
C	 -0.695071	 -0.552521	 -0.423499
C	 0.876288	 1.090661	 0.402291
H	 -1.699880	 -0.783565	 -0.725106
C	 0.304239	 -1.506541	 -0.450602
C	 1.861352	 0.111257	 0.364790
C	 1.185767	 2.497029	 0.864198
H	 0.076197	 -2.504450	 -0.780252
C	 1.591332	 -1.178970	 -0.055553
H	 2.859913	 0.369317	 0.672403
H	 0.600867	 2.776042	 1.738262
H	 2.229470	 2.589221	 1.136524
H	 0.991495	 3.232656	 0.086310
H	 2.373504	 -1.915900	 -0.074056
