%nprocshared=1
%mem=2GB
#HF/6-31G* nosymm scf=tight 

Mol

0 1
O	 -2.042549	 -1.228399	 -0.269030
C	 -1.653912	 -0.146171	 0.050137
C	 -0.332303	 0.024011	 0.778412
C	 -2.438579	 1.106236	 -0.272369
C	 0.845713	 -0.001731	 -0.208243
H	 -0.323783	 0.953829	 1.340327
H	 -0.235459	 -0.796807	 1.480410
C	 0.470186	 -0.615443	 -1.557823
H	 1.674019	 -0.561873	 0.222142
H	 1.199052	 1.014936	 -0.352052
C	 -0.833196	 -0.051118	 -2.121686
H	 1.275761	 -0.445769	 -2.268939
H	 0.380194	 -1.693579	 -1.447858
H	 -0.762766	 1.022003	 -2.274993
H	 -1.663816	 -0.234688	 -1.446544
H	 -1.075874	 -0.506201	 -3.076690
H	 -3.277823	 0.863061	 -0.908988
H	 -1.806773	 1.843019	 -0.759671
H	 -2.802853	 1.554979	 0.648059

11 8 5 9 F

5 3 2 4 F

