%nprocshared=1
%mem=2GB
#HF/6-31G* nosymm scf=tight 

Mol

0 1
H	 -2.240291	 0.559484	 0.604969
C	 -2.008299	 -0.205926	 -0.129530
O	 -0.774054	 0.001095	 -0.743181
H	 -2.752932	 -0.160639	 -0.912984
H	 -2.076115	 -1.178578	 0.348530
C	 -0.252452	 -0.982634	 -1.618818
C	 0.945267	 -0.291124	 -2.266349
C	 0.214166	 -2.219768	 -0.844896
C	 -1.276618	 -1.367026	 -2.691405
H	 1.659931	 0.006191	 -1.507211
H	 0.622292	 0.600335	 -2.792051
H	 1.442146	 -0.949091	 -2.971935
H	 0.883413	 -1.929817	 -0.041735
H	 0.746258	 -2.897421	 -1.504642
H	 -0.615553	 -2.770828	 -0.415415
H	 -1.654325	 -0.478162	 -3.185680
H	 -0.816200	 -2.003919	 -3.439680
H	 -2.118693	 -1.910882	 -2.276963

2 3 6 7 F

