%nprocshared=1
%mem=2GB
#HF/6-31G* nosymm scf=tight 

Mol

0 1
H	 4.309160	 -5.978745	 1.757859
C	 3.742419	 -5.082042	 1.580345
C	 2.572303	 -4.852310	 2.288301
C	 4.184206	 -4.159974	 0.644639
H	 2.230796	 -5.568226	 3.013699
C	 1.844129	 -3.699098	 2.059502
H	 5.091487	 -4.339763	 0.096804
C	 3.456922	 -3.004893	 0.413946
H	 0.936432	 -3.504781	 2.598017
C	 2.283778	 -2.771718	 1.121848
H	 3.795075	 -2.288641	 -0.309211
C	 1.463013	 -1.545621	 0.912827
O	 1.970282	 -0.730723	 0.000018
O	 0.453457	 -1.312357	 1.500400
C	 3.377318	 -0.566646	 -0.000065
H	 3.695437	 -0.028981	 -0.881264
H	 3.789299	 -1.563704	 0.000236
H	 3.695516	 -0.028316	 0.880770

12 13 15 16 F

13 12 10 6 F

