%nprocshared=1
%mem=2GB
#HF/6-31G* nosymm scf=tight 

Mol

0 1
H	 2.762751	 1.921259	 -1.173584
N	 2.000309	 1.273642	 -1.226681
C	 1.865559	 0.531981	 0.018834
H	 2.201831	 0.651008	 -1.985988
C	 0.645745	 -0.382037	 -0.029944
H	 1.740934	 1.253718	 0.820347
H	 2.751575	 -0.058782	 0.264545
C	 -0.679275	 0.379305	 0.025956
H	 0.698998	 -0.976915	 -0.937203
H	 0.693479	 -1.083846	 0.802235
C	 -1.392228	 0.250032	 1.373309
H	 -1.337258	 0.016664	 -0.762333
H	 -0.503418	 1.432984	 -0.185425
C	 -2.717737	 1.009003	 1.423295
H	 -1.570154	 -0.801782	 1.586012
H	 -0.738091	 0.614101	 2.162749
H	 -3.407111	 0.644230	 0.666974
H	 -3.198966	 0.897744	 2.390065
H	 -2.568637	 2.070879	 1.248424

6 3 5 9 F

12 8 11 15 F

1 2 3 6 F

