%nprocshared=1
%mem=2GB
#HF/6-31G* nosymm scf=tight 

Mol

0 1
H	 -2.671345	 0.066508	 1.305635
O	 -1.866973	 -0.155225	 0.859663
C	 -2.101296	 -1.202959	 -0.046648
C	 -2.884782	 -0.767065	 -1.279885
H	 -1.123355	 -1.560478	 -0.342428
H	 -2.610913	 -2.028552	 0.448796
C	 -2.356978	 0.513094	 -1.932174
H	 -2.869028	 -1.578382	 -2.002992
H	 -3.923630	 -0.622400	 -0.987934
C	 -2.573192	 1.753390	 -1.060546
H	 -2.847629	 0.653633	 -2.891276
H	 -1.292183	 0.402260	 -2.137765
C	 -2.172472	 1.585054	 0.409634
H	 -2.026543	 2.591615	 -1.488799
H	 -3.625699	 2.025894	 -1.101410
C	 -3.034785	 0.600176	 1.203932
H	 -1.138663	 1.247765	 0.445557
H	 -2.189880	 2.556981	 0.900441
C	 -4.465221	 1.099239	 1.418936
H	 -2.570389	 0.415905	 2.171657
H	 -3.070797	 -0.360268	 0.695450
C	 -5.411106	 0.710962	 0.283063
H	 -4.847259	 0.703375	 2.357459
H	 -4.456195	 2.181939	 1.526468
H	 -5.467273	 -0.368187	 0.171231
H	 -6.416738	 1.077069	 0.465559
H	 -5.076338	 1.123259	 -0.664726

14 10 7 4 F

14 10 13 16 F

10 7 4 8 F

8 4 3 2 F

10 13 16 20 F

4 3 2 1 F

