%nprocshared=1
%mem=2GB
#HF/6-31G* nosymm scf=tight 
prop=(read,field)

Mol

0 1
H	 0.000066	 2.886332	 0.000017
C	 0.000055	 1.810473	 0.000012
C	 1.192613	 1.111365	 -0.000015
C	 -1.192533	 1.111406	 0.000027
H	 2.136409	 1.624271	 -0.000023
C	 1.144757	 -0.276701	 -0.000033
H	 -2.136301	 1.624355	 0.000038
C	 -1.144813	 -0.276669	 0.000016
N	 -0.000001	 -0.941580	 -0.000015
C	 2.399333	 -1.112246	 -0.000020
C	 -2.399364	 -1.112128	 0.000018
H	 2.419485	 -1.754702	 -0.873518
H	 3.291710	 -0.497566	 -0.000808
H	 2.420261	 -1.753422	 0.874387
H	 -2.420168	 -1.753897	 -0.874030
H	 -3.291860	 -0.497525	 0.000036
H	 -2.420148	 -1.753920	 0.874049

@grid.dat /N
