%nprocshared=1
%mem=2GB
#HF/6-31G* nosymm scf=tight 

Mol

0 1
H	 -3.161837	 0.500524	 -0.000234
C	 -2.367097	 -0.232926	 -0.000000
O	 -1.158440	 0.455814	 -0.000122
H	 -2.468853	 -0.861886	 -0.882833
H	 -2.468942	 -0.861421	 0.883154
C	 -0.881970	 1.130132	 -1.190388
C	 0.456890	 1.834304	 -1.055261
H	 -1.670253	 1.853236	 -1.404001
H	 -0.857263	 0.426403	 -2.023493
C	 0.842987	 2.603015	 -2.318151
H	 0.406781	 2.509072	 -0.206238
H	 1.214132	 1.092268	 -0.821451
H	 0.109337	 3.368146	 -2.556386
H	 1.801883	 3.094918	 -2.194068
H	 0.921754	 1.941323	 -3.176267

11 7 6 8 F

8 6 3 2 F

