%nprocshared=24
%mem=2GB
#HF/6-31G* nosymm scf=tight 

Mol

0 1
H	 -2.455504	 -1.062989	 3.255514
C	 -2.425350	 -0.963885	 2.187839
C	 -1.271134	 -0.975404	 1.562018
H	 -3.351856	 -0.856911	 1.655811
O	 -1.187275	 -1.028957	 0.206673
H	 -0.329199	 -0.923790	 2.079018
C	 0.060834	 -1.215050	 -0.367298
C	 0.954194	 -0.011881	 -0.165840
H	 -0.000380	 -1.415766	 -1.431094
H	 0.525876	 -2.058337	 0.121668
F	 0.876880	 0.388388	 1.094959
F	 2.221332	 -0.293307	 -0.420775
F	 0.604504	 0.998531	 -0.934719

11 8 7 9 F

3 5 7 9 F

6 3 5 7 F

