%nprocshared=1
%mem=2GB
#HF/6-31G* nosymm scf=tight 

Mol

0 1
H	 -0.944757	 -0.000069	 1.678017
O	 -0.042387	 -0.000390	 1.388199
C	 -0.001487	 0.000018	 -0.026623
C	 0.262908	 -1.419734	 -0.531636
C	 -1.324427	 0.536259	 -0.577005
C	 1.152007	 0.927626	 -0.391886
H	 0.341913	 -1.446917	 -1.613725
H	 -0.544093	 -2.089125	 -0.242549
H	 1.184867	 -1.802908	 -0.108330
H	 -1.310922	 0.586787	 -1.661143
H	 -2.152388	 -0.106482	 -0.286665
H	 -1.517791	 1.529592	 -0.187421
H	 1.269222	 0.997079	 -1.468539
H	 2.078392	 0.558982	 0.034026
H	 0.972138	 1.921761	 0.001477
