%nprocshared=1
%mem=2GB
#HF/6-31G* nosymm scf=tight 

Mol

0 1
O	 -1.276010	 1.052711	 -0.768302
C	 -1.204840	 0.067374	 -0.106123
C	 -2.388195	 -0.672128	 0.458071
O	 -0.067104	 -0.527208	 0.221609
H	 -2.388023	 -1.694060	 0.097175
H	 -3.300579	 -0.174919	 0.164318
H	 -2.315377	 -0.706351	 1.539059
C	 1.118504	 0.267759	 0.364043
C	 0.753184	 1.394778	 1.313756
C	 1.572436	 0.762327	 -1.000507
H	 1.885232	 -0.355279	 0.800459
H	 0.420587	 0.999644	 2.266906
H	 1.614880	 2.030704	 1.488143
H	 -0.043621	 2.002742	 0.898864
H	 2.456295	 1.383709	 -0.897102
H	 1.818517	 -0.069594	 -1.648062
H	 0.791746	 1.353550	 -1.468467

11 8 4 2 F

