%nprocshared=1
%mem=2GB
#HF/6-31G* nosymm scf=tight 

Mol

0 1
H	 -3.161837	 0.500524	 -0.000234
C	 -2.367097	 -0.232926	 -0.000000
O	 -1.158440	 0.455814	 -0.000122
H	 -2.468853	 -0.861886	 -0.882833
H	 -2.468942	 -0.861421	 0.883154
C	 -1.058687	 1.440634	 0.983775
C	 -1.874142	 1.011704	 2.191133
H	 -1.424124	 2.393792	 0.599269
H	 -0.014717	 1.586498	 1.264414
C	 -3.378852	 1.122395	 1.949314
H	 -1.608673	 -0.011147	 2.440054
H	 -1.584101	 1.625674	 3.038255
H	 -3.694211	 0.495711	 1.119712
H	 -3.935943	 0.810744	 2.826451
H	 -3.669446	 2.144172	 1.721429

6 3 2 4 F

11 7 6 8 F

