%nprocshared=1
%mem=2GB
#HF/6-31G* nosymm scf=tight 

Mol

0 1
H	 3.083879	 -1.346558	 0.395444
O	 2.172668	 -1.603300	 0.415122
C	 1.365383	 -0.540424	 0.207814
C	 1.362994	 0.566988	 1.046228
C	 0.519428	 -0.581339	 -0.886771
H	 2.022120	 0.596822	 1.897520
C	 0.515517	 1.631746	 0.789824
H	 0.520275	 -1.436120	 -1.535173
C	 -0.325878	 0.488813	 -1.136348
H	 0.522608	 2.483279	 1.445736
C	 -0.333244	 1.599345	 -0.301821
C	 -1.237282	 0.451369	 -2.310576
H	 -0.992343	 2.425284	 -0.502861
O	 -1.190784	 -0.364723	 -3.174507
H	 -1.985538	 1.249219	 -2.338814

11 9 12 14 F

