%nprocshared=1
%mem=2GB
#HF/6-31G* nosymm scf=tight 

Mol

0 1
H	 -0.000158	 1.970498	 0.756846
O	 -0.000074	 1.880206	 -0.189275
C	 -0.000015	 0.544847	 -0.545111
C	 0.324870	 0.403045	 -2.028461
C	 -1.319277	 -0.101465	 -0.135444
H	 0.787610	 0.055860	 0.008642
F	 1.512838	 0.914024	 -2.271730
F	 0.334146	 -0.853767	 -2.419224
F	 -0.555767	 1.058569	 -2.767625
F	 -1.474391	 -0.002341	 1.167496
F	 -1.370648	 -1.377001	 -0.455986
F	 -2.341703	 0.510351	 -0.711555

7 4 3 6 F

