%nprocshared=1
%mem=2GB
#HF/6-31G* nosymm scf=tight 

Mol

0 1
H	 -1.463781	 0.240710	 2.509400
O	 -0.689127	 0.766417	 2.363126
C	 -0.833131	 1.465833	 1.161443
C	 -0.795902	 0.595680	 -0.067389
H	 -0.017670	 2.179315	 1.127237
H	 -1.754828	 2.046778	 1.159859
C	 -1.522220	 -0.487727	 -0.255690
H	 -0.104122	 0.916066	 -0.831113
H	 -1.071454	 -1.449856	 -0.418625
H	 -2.596511	 -0.445958	 -0.267127

5 3 2 1 F

5 3 4 7 F

