%nprocshared=1
%mem=2GB
#HF/6-31G* nosymm scf=tight 

Mol

0 1
O	 -3.853486	 4.767425	 2.367791
C	 -3.589812	 4.457530	 1.246542
C	 -2.652680	 3.307590	 0.923494
C	 -4.178810	 5.198743	 0.063816
C	 -2.933125	 2.035105	 1.717450
H	 -2.717326	 3.115698	 -0.146734
H	 -1.633034	 3.650735	 1.093720
C	 -3.412183	 0.884423	 0.830772
H	 -3.675996	 2.247860	 2.479688
H	 -2.033313	 1.741802	 2.248919
C	 -4.853029	 1.061290	 0.348683
H	 -2.754269	 0.792261	 -0.032189
H	 -3.329625	 -0.054136	 1.376994
C	 -5.095637	 2.396558	 -0.357159
H	 -5.529131	 0.975744	 1.197557
H	 -5.108708	 0.246539	 -0.326451
C	 -5.148814	 3.580920	 0.607280
H	 -4.309792	 2.564146	 -1.090771
H	 -6.027864	 2.344505	 -0.915821
H	 -4.217321	 3.680618	 1.157308
H	 -5.321284	 4.512747	 0.077512
H	 -5.948295	 3.460003	 1.332782
H	 -4.744894	 4.518640	 -0.565967
H	 -4.826996	 5.989572	 0.414927
H	 -3.388670	 5.622899	 -0.548887

9 5 8 12 F

15 11 8 12 F

15 11 14 18 F

1 2 3 6 F

