%nprocshared=1
%mem=2GB
#HF/6-31G* nosymm scf=tight 

Mol

0 1
H	 2.451652	 -2.178703	 0.543297
O	 2.773837	 -1.297590	 0.410870
C	 1.759943	 -0.431505	 0.213148
C	 0.467305	 -0.945877	 0.234378
C	 1.965237	 0.917111	 -0.004157
H	 0.333944	 -1.997494	 0.405183
C	 -0.612426	 -0.109911	 0.038400
H	 2.950111	 1.340299	 -0.025614
C	 0.858450	 1.728005	 -0.197275
H	 -1.606948	 -0.515447	 0.056387
C	 -0.432262	 1.249074	 -0.181931
N	 1.081206	 3.153911	 -0.426744
H	 -1.259819	 1.910095	 -0.335566
O	 2.184742	 3.576950	 -0.255631
O	 0.148334	 3.812084	 -0.771450

11 9 12 14 F

