%nprocshared=1
%mem=2GB
#HF/6-31G* nosymm scf=tight 

Mol

0 1
H	 -3.864142	 -1.890894	 0.845944
C	 -2.794480	 -1.782122	 0.873792
C	 -2.074165	 -2.302964	 1.938226
C	 -2.140675	 -1.121754	 -0.154501
H	 -2.582451	 -2.814883	 2.735064
C	 -0.698818	 -2.162708	 1.973331
H	 -2.700715	 -0.718666	 -0.978808
C	 -0.764000	 -0.980161	 -0.121475
H	 -0.125266	 -2.559341	 2.789046
C	 -0.039208	 -1.501043	 0.943945
H	 -0.253946	 -0.469881	 -0.915061
C	 1.443340	 -1.376859	 1.029310
O	 1.970282	 -0.730723	 0.000018
O	 2.096986	 -1.810107	 1.925916
C	 3.377318	 -0.566646	 -0.000065
H	 3.695437	 -0.028981	 -0.881264
H	 3.789299	 -1.563704	 0.000236
H	 3.695516	 -0.028316	 0.880770

10 12 13 15 F

13 12 10 6 F

