%nprocshared=1
%mem=2GB
#HF/6-31G* nosymm scf=tight 

Mol

0 1
H	 -0.821032	 -1.655889	 0.000000
O	 -1.037828	 -0.728600	 0.000000
C	 0.100509	 -0.036935	 0.000000
C	 1.205178	 -0.778397	 -0.697025
O	 0.192772	 1.035160	 0.501321
H	 1.371548	 -1.730286	 -0.206165
H	 2.107688	 -0.186646	 -0.675622
H	 0.917166	 -0.982468	 -1.721778
