%nprocshared=1
%mem=2GB
#HF/6-31G* nosymm scf=tight 

Mol

0 1
H	 -3.420663	 1.227371	 -1.044276
O	 -3.452007	 0.283848	 -0.965577
C	 -3.181085	 -0.079926	 0.364119
C	 -1.765924	 0.277073	 0.805136
H	 -3.327791	 -1.152017	 0.410903
H	 -3.905698	 0.375695	 1.036898
C	 -0.677594	 -0.417312	 -0.014550
H	 -1.637766	 1.358238	 0.744969
H	 -1.659588	 0.017670	 1.857098
C	 0.738335	 -0.034840	 0.421385
H	 -0.814977	 -0.178223	 -1.064632
H	 -0.802730	 -1.495410	 0.071702
C	 1.822265	 -0.738362	 -0.399735
H	 0.853533	 1.043532	 0.342250
H	 0.871597	 -0.279636	 1.474438
C	 3.258060	 -0.455774	 0.057203
H	 1.718003	 -0.459167	 -1.447053
H	 1.651028	 -1.811884	 -0.354513
C	 4.306959	 -0.539743	 -1.053276
H	 3.517989	 -1.168630	 0.836025
H	 3.300894	 0.527836	 0.520756
H	 4.278870	 -1.509173	 -1.543741
H	 5.306095	 -0.403017	 -0.650945
H	 4.156278	 0.219950	 -1.813095

17 13 10 7 F

13 10 7 11 F

11 7 4 3 F

1 2 3 5 F

7 4 3 2 F

