%nprocshared=1
%mem=2GB
#HF/6-31G* nosymm scf=tight 

Mol

0 1
O	 -0.806752	 -1.114546	 1.082146
C	 -0.561929	 -0.074560	 0.531515
C	 -1.597472	 1.034011	 0.503089
N	 0.623947	 0.147590	 -0.102813
H	 -1.868528	 1.298769	 -0.513038
H	 -2.472791	 0.671041	 1.019920
H	 -1.237628	 1.928840	 0.999450
C	 1.536572	 -0.965059	 -0.278894
C	 1.198829	 1.458710	 -0.309501
H	 2.339765	 -0.671336	 -0.945696
H	 1.006613	 -1.799594	 -0.703906
H	 1.973221	 -1.271723	 0.669113
H	 1.771949	 1.453336	 -1.229035
H	 0.436844	 2.215848	 -0.404657
H	 1.868060	 1.741302	 0.501107

2 4 8 10 F

