%nprocshared=1
%mem=2GB
#HF/6-31G* nosymm scf=tight 

Mol

0 1
H	 -2.153054	 -2.250733	 0.000000
O	 -2.462445	 -1.355403	 0.000000
C	 -1.434260	 -0.483044	 0.000000
C	 -0.808913	 -0.233940	 1.217209
C	 -0.996240	 0.153543	 -1.145778
H	 -1.166443	 -0.740062	 2.094117
C	 0.249163	 0.649247	 1.280056
H	 -1.470896	 -0.030103	 -2.093159
C	 0.072986	 1.042249	 -1.065889
H	 0.726878	 0.836239	 2.224192
C	 0.703159	 1.298020	 0.140199
C	 0.525314	 1.704251	 -2.269073
H	 1.525890	 1.985476	 0.185978
N	 0.878931	 2.223226	 -3.215922

14 12 9 5 F

