%nprocshared=1
%mem=2GB
#HF/6-31G* nosymm scf=tight opt=ModRedundant

Mol

0 1
H	 -2.757000	 -0.661000	 1.132000
C	 -2.707000	 -0.468000	 0.063000
O	 -1.393000	 -0.313000	 -0.366000
H	 -3.126000	 -1.313000	 -0.466000
H	 -3.306000	 0.415000	 -0.157000
C	 -0.720000	 0.751000	 0.229000
C	 0.720000	 0.751000	 -0.229000
H	 -1.185000	 1.697000	 -0.051000
H	 -0.751000	 0.670000	 1.313000
O	 1.393000	 -0.313000	 0.366000
H	 0.751000	 0.670000	 -1.313000
H	 1.185000	 1.697000	 0.051000
C	 2.707000	 -0.468000	 -0.063000
H	 2.757000	 -0.661000	 -1.132000
H	 3.306000	 0.415000	 0.156000
H	 3.126000	 -1.313000	 0.466000
