%nprocshared=1
%mem=2GB
#HF/6-31G* nosymm scf=tight 

Mol

0 1
H	 -3.430514	 -3.356119	 -0.201944
C	 -2.444094	 -2.985712	 0.013827
C	 -1.801217	 -3.370344	 1.180839
C	 -1.819793	 -2.125464	 -0.875642
H	 -2.286513	 -4.037557	 1.869810
C	 -0.532887	 -2.893656	 1.457587
H	 -2.319692	 -1.828403	 -1.779778
C	 -0.550195	 -1.647033	 -0.600692
H	 -0.020343	 -3.180614	 2.355710
C	 0.096793	 -2.030644	 0.568074
H	 -0.063334	 -0.981150	 -1.286174
C	 1.463013	 -1.545621	 0.912827
O	 1.970282	 -0.730723	 0.000018
O	 2.047802	 -1.852617	 1.904105
C	 3.377318	 -0.566646	 -0.000065
H	 3.695437	 -0.028981	 -0.881264
H	 3.789299	 -1.563704	 0.000236
H	 3.695516	 -0.028316	 0.880770

12 13 15 16 F

13 12 10 6 F

