%nprocshared=1
%mem=2GB
#HF/6-31G* nosymm scf=tight 

Mol

0 1
H	 -1.836216	 1.387520	 -0.000064
C	 -1.301823	 0.443321	 -0.000031
O	 -0.003969	 0.658512	 0.000451
O	 -1.829879	 -0.616434	 -0.000857
C	 0.850537	 -0.484732	 0.000380
C	 1.541610	 -0.534891	 -1.345065
H	 0.251710	 -1.367507	 0.177672
H	 1.558271	 -0.391567	 0.812616
H	 0.817137	 -0.620114	 -2.146881
H	 2.203338	 -1.393717	 -1.387100
H	 2.130072	 0.360497	 -1.509019

5 3 2 4 F

