%nprocshared=1
%mem=2GB
#HF/6-31G* nosymm scf=tight 

Mol

0 1
O	 -3.853486	 4.767425	 2.367791
C	 -3.589812	 4.457530	 1.246542
C	 -2.652680	 3.307590	 0.923494
C	 -4.178810	 5.198743	 0.063816
C	 -2.933125	 2.035105	 1.717450
H	 -2.717326	 3.115698	 -0.146734
H	 -1.633034	 3.650735	 1.093720
C	 -3.847476	 1.065324	 0.966950
H	 -3.379864	 2.301428	 2.670144
H	 -1.992130	 1.548054	 1.952942
C	 -5.305978	 1.524966	 0.931831
H	 -3.486315	 0.940682	 -0.052890
H	 -3.792788	 0.081442	 1.430687
C	 -5.481730	 2.939487	 0.376623
H	 -5.721472	 1.479488	 1.936976
H	 -5.887959	 0.828424	 0.330895
C	 -5.040563	 4.025204	 1.357578
H	 -4.915317	 3.036722	 -0.547252
H	 -6.525504	 3.095414	 0.111894
H	 -3.990973	 3.916939	 1.616015
H	 -5.176586	 5.016183	 0.935488
H	 -5.613347	 3.976805	 2.279382
H	 -4.744894	 4.518640	 -0.565967
H	 -4.826996	 5.989572	 0.414927
H	 -3.388670	 5.622899	 -0.548887

9 5 8 12 F

15 11 8 12 F

15 11 14 18 F

1 2 3 6 F

