%nprocshared=1
%mem=2GB
#HF/6-31G* nosymm scf=tight 

Mol

0 1
O	 -1.553518	 -1.563605	 1.199514
C	 -0.451170	 -1.129930	 1.097049
C	 0.801727	 -1.959116	 0.945507
O	 -0.172733	 0.166226	 1.104769
C	 1.124911	 -2.785238	 2.184071
H	 1.613075	 -1.280220	 0.700432
H	 0.669725	 -2.590969	 0.072237
H	 1.272053	 -2.149836	 3.048928
H	 2.030738	 -3.360307	 2.024106
H	 0.320287	 -3.472711	 2.414906
C	 -1.262373	 1.072344	 1.242742
C	 -2.079914	 0.996037	 -0.029310
H	 -0.874065	 2.067878	 1.409216
H	 -1.845233	 0.793480	 2.109979
H	 -1.480517	 1.272940	 -0.889080
H	 -2.924715	 1.674303	 0.033254
H	 -2.457106	 -0.008395	 -0.184549

2 4 11 13 F

11 4 2 3 F

