%nprocshared=1
%mem=2GB
#HF/6-31G* nosymm scf=tight 

Mol

0 1
H	 -3.161837	 0.500524	 -0.000234
C	 -2.367097	 -0.232926	 -0.000000
O	 -1.158440	 0.455814	 -0.000122
H	 -2.468853	 -0.861886	 -0.882833
H	 -2.468942	 -0.861421	 0.883154
C	 -1.058687	 1.440634	 0.983775
C	 0.300233	 2.109559	 0.871797
H	 -1.182068	 0.997128	 1.972703
H	 -1.854304	 2.176601	 0.860266
C	 0.670203	 2.895306	 2.129018
H	 1.045193	 1.344752	 0.674905
H	 0.290235	 2.766970	 0.007847
H	 0.709666	 2.250252	 3.002387
H	 1.643514	 3.362142	 2.021435
H	 -0.051122	 3.682247	 2.331051

6 3 2 4 F

8 6 3 2 F

