%nprocshared=1
%mem=2GB
#HF/6-31G* nosymm scf=tight 

Mol

0 1
H	 -2.698709	 -0.000305	 0.034435
C	 -1.693833	 0.000034	 0.434417
O	 -0.828952	 -0.000968	 -0.659236
H	 -1.574200	 0.882896	 1.055746
H	 -1.574147	 -0.881698	 1.057355
C	 0.559449	 -0.000018	 -0.420814
C	 0.921782	 -0.614926	 0.929564
C	 1.351485	 -0.617983	 -1.571360
H	 0.801684	 1.055315	 -0.380486
H	 0.305805	 -0.189042	 1.714257
H	 1.961631	 -0.409684	 1.163708
H	 0.792180	 -1.692557	 0.938504
H	 1.032439	 -0.194780	 -2.517704
H	 2.409946	 -0.412104	 -1.445912
H	 1.232593	 -1.695637	 -1.620019

6 3 2 1 F

