%nprocshared=1
%mem=2GB
#HF/6-31G* nosymm scf=tight 

Mol

0 1
H	 -2.070127	 1.187161	 0.348881
C	 -2.007499	 0.214663	 -0.130166
O	 -0.774054	 0.001095	 -0.743181
H	 -2.751842	 0.174485	 -0.914175
H	 -2.244322	 -0.550212	 0.603369
C	 0.406953	 0.000033	 0.038965
C	 1.527284	 -0.003667	 -0.998752
C	 0.498933	 1.262172	 0.902524
C	 0.494271	 -1.259566	 0.906664
H	 1.452513	 0.873252	 -1.631882
H	 1.448863	 -0.881882	 -1.629595
H	 2.502020	 -0.005104	 -0.521731
H	 0.364280	 2.147110	 0.289513
H	 1.472180	 1.321775	 1.378800
H	 -0.247853	 1.275162	 1.689097
H	 0.356778	 -2.146106	 0.296587
H	 1.467182	 -1.320941	 1.383330
H	 -0.252763	 -1.267328	 1.693119

6 3 2 5 F

