%nprocshared=1
%mem=2GB
#HF/6-31G* nosymm scf=tight opt=ModRedundant

Mol

0 1
H	 -3.357000	 0.215000	 -0.030000
C	 -2.447000	 -0.376000	 -0.044000
C	 -1.217000	 0.520000	 0.021000
H	 -2.434000	 -0.972000	 -0.949000
H	 -2.482000	 -1.055000	 0.805000
N	 -0.000000	 -0.265000	 -0.039000
H	 -1.219000	 1.198000	 -0.827000
H	 -1.265000	 1.146000	 0.918000
C	 1.217000	 0.520000	 0.021000
H	 0.000000	 -0.938000	 0.705000
C	 2.447000	 -0.376000	 -0.044000
H	 1.219000	 1.198000	 -0.827000
H	 1.265000	 1.146000	 0.918000
H	 2.434000	 -0.972000	 -0.949000
H	 3.357000	 0.215000	 -0.030000
H	 2.482000	 -1.055000	 0.805000
