%nprocshared=1
%mem=2GB
#HF/6-31G* nosymm scf=tight 

Mol

0 1
H	 -0.944757	 -0.000069	 1.678017
O	 -0.042387	 -0.000390	 1.388199
C	 -0.001487	 0.000018	 -0.026623
C	 1.117663	 0.926355	 -0.506250
C	 0.218111	 -1.426875	 -0.532979
C	 -1.363857	 0.525784	 -0.464731
H	 1.148943	 0.981728	 -1.589695
H	 2.087015	 0.569558	 -0.165722
H	 0.971087	 1.926470	 -0.113435
H	 0.214879	 -1.467110	 -1.617627
H	 1.174792	 -1.815111	 -0.190975
H	 -0.562305	 -2.081351	 -0.160841
H	 -1.435524	 0.566050	 -1.546853
H	 -1.525333	 1.522529	 -0.069873
H	 -2.151864	 -0.117318	 -0.089420
