%nprocshared=1
%mem=2GB
#HF/6-31G* nosymm scf=tight 

Mol

0 1
H	 1.150536	 -4.110501	 3.822058
C	 1.294467	 -3.383538	 3.043675
C	 0.447389	 -3.353334	 1.941056
C	 2.321846	 -2.466070	 3.122398
H	 -0.358871	 -4.060909	 1.862879
C	 0.628852	 -2.422642	 0.941016
H	 2.986877	 -2.474449	 3.967826
C	 2.518527	 -1.520383	 2.121672
H	 -0.017965	 -2.388241	 0.084115
C	 1.668496	 -1.499093	 1.027106
H	 3.326313	 -0.820355	 2.211719
O	 1.765256	 -0.628444	 0.000000
C	 2.778419	 0.335181	 0.000000
H	 2.731280	 0.961222	 -0.884976
H	 3.711703	 -0.207767	 0.000000
H	 2.731280	 0.961222	 0.884976

13 12 10 8 F

