%nprocshared=1
%mem=2GB
#HF/6-31G* nosymm scf=tight 

Mol

0 1
O	 0.287197	 0.937494	 -0.776241
C	 0.028650	 0.075053	 -0.000277
C	 -1.233602	 -0.752807	 0.000328
O	 0.836901	 -0.278775	 0.990398
C	 -2.501530	 0.091881	 0.000126
H	 -1.193807	 -1.406641	 -0.865785
H	 -1.193516	 -1.405779	 0.867015
H	 -2.545121	 0.729328	 -0.874513
H	 -3.377167	 -0.548497	 0.000561
H	 -2.544818	 0.730135	 0.874258
C	 2.061027	 0.424328	 1.103315
H	 2.655206	 0.298196	 0.209751
H	 2.569153	 -0.002730	 1.953781
H	 1.880813	 1.477421	 1.264529

11 4 2 3 F

