%nprocshared=1
%mem=2GB
#HF/6-31G* nosymm scf=tight 

Mol

0 1
O	 -1.276010	 1.052711	 -0.768302
C	 -1.204840	 0.067374	 -0.106123
C	 -2.388195	 -0.672128	 0.458071
O	 -0.067104	 -0.527208	 0.221609
H	 -2.388023	 -1.694060	 0.097175
H	 -3.300579	 -0.174919	 0.164318
H	 -2.315377	 -0.706351	 1.539059
C	 -0.110042	 -1.822128	 0.837455
C	 -0.981563	 -2.682169	 -0.060526
C	 -0.651632	 -1.699989	 2.253226
H	 0.897430	 -2.210467	 0.863916
H	 -0.569539	 -2.729922	 -1.062126
H	 -1.042833	 -3.691310	 0.333445
H	 -1.985684	 -2.276572	 -0.122848
H	 -0.708276	 -2.679706	 2.716868
H	 -0.006054	 -1.076733	 2.858831
H	 -1.647636	 -1.268870	 2.242273

11 8 4 2 F

