%nprocshared=1
%mem=2GB
#HF/6-31G* nosymm scf=tight 

Mol

0 1
H	 1.802897	 2.454628	 0.213412
N	 0.963242	 1.917360	 0.114240
C	 1.267428	 0.496480	 0.024474
H	 0.514360	 2.234013	 -0.724301
C	 -0.016086	 -0.325158	 -0.029487
H	 1.830922	 0.223219	 0.911512
H	 1.894664	 0.245317	 -0.834521
C	 -1.282277	 0.529072	 0.046735
H	 -0.012495	 -0.908639	 -0.945788
H	 -0.015903	 -1.041248	 0.791956
C	 -2.563920	 -0.301775	 -0.006060
H	 -1.284084	 1.244622	 -0.773004
H	 -1.271387	 1.115393	 0.963286
H	 -2.621848	 -0.873522	 -0.927727
H	 -3.445135	 0.329952	 0.047812
H	 -2.609542	 -1.004582	 0.821105

12 8 5 9 F

1 2 3 6 F

