%nprocshared=1
%mem=2GB
#HF/6-31G* nosymm scf=tight 

Mol

0 1
O	 -1.276010	 1.052711	 -0.768302
C	 -1.204840	 0.067374	 -0.106123
C	 -2.388195	 -0.672128	 0.458071
O	 -0.067104	 -0.527208	 0.221609
H	 -2.388023	 -1.694060	 0.097175
H	 -3.300579	 -0.174919	 0.164318
H	 -2.315377	 -0.706351	 1.539059
C	 -0.046118	 -1.420791	 1.343660
C	 -1.175995	 -2.408232	 1.111441
C	 -0.201884	 -0.629947	 2.633213
H	 0.904622	 -1.933233	 1.341915
H	 -1.035157	 -2.938263	 0.176305
H	 -1.208206	 -3.135363	 1.916162
H	 -2.131327	 -1.895829	 1.073512
H	 -0.209896	 -1.302735	 3.484864
H	 0.619012	 0.064467	 2.759287
H	 -1.134556	 -0.074884	 2.627264

11 8 4 2 F

