%nprocshared=1
%mem=2GB
#HF/6-31G* nosymm scf=tight 

Mol

0 1
H	 0.372032	 -0.712093	 -3.630226
N	 -0.285176	 -0.574420	 -2.886810
C	 0.112898	 -1.320102	 -1.701474
H	 -1.173220	 -0.896375	 -3.222300
C	 -0.835279	 -1.031772	 -0.542346
H	 1.115271	 -1.001025	 -1.432591
H	 0.162336	 -2.398846	 -1.869603
C	 -0.679275	 0.379305	 0.025956
H	 -1.853941	 -1.187828	 -0.885580
H	 -0.661533	 -1.760262	 0.249141
C	 -0.791153	 1.473151	 -1.037697
H	 0.285499	 0.463022	 0.524004
H	 -1.433307	 0.548688	 0.793154
C	 -2.115055	 2.234023	 -0.975523
H	 0.033362	 2.173024	 -0.921214
H	 -0.676491	 1.028719	 -2.024099
H	 -2.243718	 2.718807	 -0.011807
H	 -2.163946	 3.002377	 -1.740928
H	 -2.958889	 1.565841	 -1.123406

6 3 5 9 F

12 8 5 9 F

1 2 3 6 F

