%nprocshared=1
%mem=2GB
#HF/6-31G* nosymm scf=tight 

Mol

0 1
H	 1.302825	 -1.368917	 1.815806
O	 0.984953	 -0.938614	 1.035109
C	 0.555786	 0.361361	 1.352987
C	 0.031547	 1.023609	 0.088541
H	 1.382096	 0.948896	 1.749097
H	 -0.216067	 0.331797	 2.118801
C	 -1.134819	 0.293262	 -0.585751
H	 0.855244	 1.099610	 -0.615757
H	 -0.265111	 2.040897	 0.338217
C	 -1.917817	 -0.639439	 0.339494
H	 -0.758119	 -0.268455	 -1.433105
H	 -1.813832	 1.041889	 -0.986690
H	 -2.777680	 -1.057197	 -0.174994
H	 -1.310268	 -1.471279	 0.680599
H	 -2.283753	 -0.111424	 1.216626

2 3 4 8 F

1 2 3 4 F

