%nprocshared=1
%mem=2GB
#HF/6-31G* nosymm scf=tight 

Mol

0 1
O	 3.225979	 0.970355	 -0.599647
C	 2.701189	 0.057885	 -0.047330
C	 1.245376	 -0.013843	 0.345420
O	 3.347903	 -1.046386	 0.304773
C	 0.455112	 1.231400	 -0.050772
H	 0.838542	 -0.913825	 -0.103701
H	 1.208210	 -0.175333	 1.419774
C	 -0.998893	 1.219485	 0.433193
H	 0.482531	 1.345121	 -1.130325
H	 0.957290	 2.103070	 0.354729
C	 -1.883438	 0.145884	 -0.207175
H	 -1.431207	 2.195402	 0.224832
H	 -1.019646	 1.105716	 1.516076
C	 -1.662024	 -1.243644	 0.393814
H	 -2.928946	 0.426385	 -0.088635
H	 -1.699375	 0.098559	 -1.278088
C	 -0.289109	 -1.833763	 0.066713
H	 -2.437127	 -1.918575	 0.034763
H	 -1.781411	 -1.191594	 1.474896
C	 0.856834	 -0.853068	 0.313187
H	 -0.131295	 -2.729912	 0.663080
H	 -0.272741	 -2.153069	 -0.973266
H	 1.816383	 -1.300117	 0.072311
H	 0.889113	 -0.541305	 1.353359
H	 0.746155	 0.040196	 -0.295174
C	 4.728119	 -1.109107	 -0.004993
H	 4.882018	 -1.033965	 -1.071845
H	 5.068212	 -2.067527	 0.355250
H	 5.265056	 -0.311663	 0.488280

21 17 14 11 F

17 14 11 15 F

6 3 5 9 F

11 8 5 9 F

2 4 26 27 F

1 2 4 26 F

6 3 2 1 F

