%nprocshared=1
%mem=2GB
#HF/6-31G* nosymm scf=tight 

Mol

0 1
H	 -1.836216	 1.387520	 -0.000064
C	 -1.301823	 0.443321	 -0.000031
O	 -0.003969	 0.658512	 0.000451
O	 -1.829879	 -0.616434	 -0.000857
C	 0.850537	 -0.484732	 0.000380
C	 1.845983	 -0.307544	 1.126440
H	 1.339955	 -0.554038	 -0.961381
H	 0.246703	 -1.371843	 0.133475
H	 2.436245	 0.589878	 0.980643
H	 2.517772	 -1.158855	 1.161117
H	 1.337849	 -0.231865	 2.080883

5 3 2 4 F

