%nprocshared=1
%mem=2GB
#HF/6-31G* nosymm scf=tight 

Mol

0 1
O	 -0.682937	 1.318834	 -0.186099
C	 -0.860635	 0.152188	 -0.042321
C	 -2.173363	 -0.477127	 0.338347
O	 0.083258	 -0.765189	 -0.202595
H	 -2.477673	 -1.180929	 -0.427595
H	 -2.923125	 0.290956	 0.455536
H	 -2.058825	 -1.029004	 1.264191
C	 1.391937	 -0.334737	 -0.569838
C	 1.482318	 1.178648	 -0.634207
H	 1.661676	 -0.784384	 -1.513342
H	 2.034047	 -0.728449	 0.204878
H	 2.505598	 1.476912	 -0.840766
H	 0.848884	 1.569934	 -1.420353
H	 1.183167	 1.619171	 0.310708

8 4 2 1 F

