%nprocshared=1
%mem=2GB
#HF/6-31G* nosymm scf=tight 

Mol

0 1
H	 -2.273092	 1.173159	 0.000295
O	 -1.438904	 1.618192	 0.000114
C	 -0.409536	 0.736003	 0.000030
C	 -0.077658	 0.167974	 -1.219970
C	 0.289734	 0.406178	 1.158986
H	 -0.642672	 0.450151	 -2.088949
C	 0.960986	 -0.740145	 -1.297738
C	 1.329278	 -0.509650	 1.051298
C	 -0.074006	 1.026929	 2.489162
H	 1.213494	 -1.177273	 -2.247292
C	 1.672013	 -1.084820	 -0.159486
H	 1.879310	 -0.775005	 1.937524
H	 -1.096585	 0.795298	 2.780061
H	 0.572466	 0.655569	 3.274109
H	 0.029557	 2.110006	 2.474484
H	 2.481024	 -1.790428	 -0.212560
