%nprocshared=1
%mem=2GB
#HF/6-31G* nosymm scf=tight opt=ModRedundant

Mol

0 1
O	 1.942000	 1.310000	 -0.000000
C	 1.801000	 0.130000	 0.000000
C	 0.477000	 -0.596000	 0.000000
O	 2.817000	 -0.723000	 0.000000
C	 -0.728000	 0.340000	 0.001000
H	 0.466000	 -1.251000	 -0.867000
H	 0.467000	 -1.252000	 0.866000
C	 -2.054000	 -0.421000	 -0.000000
H	 -0.675000	 0.991000	 -0.867000
H	 -0.675000	 0.990000	 0.869000
C	 -3.273000	 0.503000	 -0.000000
H	 -2.099000	 -1.073000	 -0.871000
H	 -2.099000	 -1.074000	 0.871000
C	 -4.598000	 -0.258000	 -0.000000
H	 -3.231000	 1.154000	 -0.870000
H	 -3.231000	 1.154000	 0.870000
H	 -4.686000	 -0.894000	 -0.877000
H	 -5.443000	 0.423000	 -0.000000
H	 -4.686000	 -0.893000	 0.877000
C	 4.120000	 -0.170000	 -0.000000
H	 4.276000	 0.436000	 -0.881000
H	 4.798000	 -1.010000	 -0.001000
H	 4.276000	 0.436000	 0.881000
