%nprocshared=1
%mem=2GB
#HF/6-31G* nosymm scf=tight 

Mol

0 1
H	 1.783859	 -3.492090	 -1.379093
O	 1.311259	 -3.380832	 -2.191902
C	 -0.067447	 -3.476382	 -1.953097
C	 -0.479388	 -2.635359	 -0.757835
H	 -0.646773	 -3.182474	 -2.823935
H	 -0.280051	 -4.517061	 -1.752506
O	 -0.043959	 -1.331029	 -0.978982
H	 -0.035483	 -3.038347	 0.154596
H	 -1.560555	 -2.674354	 -0.638922
C	 -0.381609	 -0.813417	 -2.226865
H	 0.366496	 -0.106062	 -2.579876
H	 -0.435693	 -1.641239	 -2.920182
H	 -1.346371	 -0.311084	 -2.200645

8 4 3 5 F

1 2 3 5 F

10 7 4 8 F

