%nprocshared=1
%mem=2GB
#HF/6-31G* nosymm scf=tight 
prop=(read,field)

Mol

0 1
O	 1.200890	 1.416931	 -0.027124
C	 0.861225	 0.272633	 -0.014871
C	 -0.623798	 -0.118164	 -0.003701
C	 1.911841	 -0.823772	 -0.004506
C	 -0.895241	 -1.256354	 -1.002433
C	 -1.473558	 1.103447	 -0.370801
C	 -0.983809	 -0.581376	 1.422326
H	 -0.615210	 -0.971957	 -2.012702
H	 -1.954170	 -1.493106	 -1.010209
H	 -0.360448	 -2.164839	 -0.747762
H	 -1.227385	 1.468634	 -1.361693
H	 -2.526625	 0.839042	 -0.358523
H	 -1.314728	 1.915962	 0.325858
H	 -2.039588	 -0.827894	 1.472949
H	 -0.427546	 -1.463964	 1.720692
H	 -0.788932	 0.202600	 2.147046
H	 2.019296	 -1.231074	 -1.005515
H	 2.857840	 -0.394465	 0.295325
H	 1.655546	 -1.643814	 0.655089

@grid.dat /N
