%nprocshared=1
%mem=2GB
#HF/6-31G* nosymm scf=tight 

Mol

0 1
H	 -2.698709	 -0.000305	 0.034435
C	 -1.693833	 0.000034	 0.434417
O	 -0.828952	 -0.000968	 -0.659236
H	 -1.574200	 0.882896	 1.055746
H	 -1.574147	 -0.881698	 1.057355
C	 -1.380943	 -0.002123	 -1.955310
C	 -1.966440	 -1.359131	 -2.340846
C	 -2.371929	 1.140044	 -2.170625
H	 -0.521398	 0.180517	 -2.589231
H	 -1.255213	 -2.149916	 -2.127855
H	 -2.189555	 -1.378761	 -3.402952
H	 -2.888344	 -1.574775	 -1.810040
H	 -1.941673	 2.078908	 -1.839155
H	 -2.611943	 1.229157	 -3.225574
H	 -3.303466	 0.982102	 -1.636645

9 6 3 2 F

