%nprocshared=1
%mem=2GB
#HF/6-31G* nosymm scf=tight 

Mol

0 1
H	 -3.135461	 -1.215070	 0.001379
O	 -2.310168	 -0.871793	 -0.309793
C	 -2.026376	 0.340750	 0.341611
C	 -0.673256	 0.843270	 -0.132153
H	 -2.792215	 1.080697	 0.115987
H	 -2.013526	 0.200402	 1.421792
C	 0.486613	 -0.083066	 0.235839
H	 -0.715586	 0.970948	 -1.210718
H	 -0.508072	 1.829858	 0.297090
C	 1.840406	 0.433480	 -0.254303
H	 0.300215	 -1.068318	 -0.178947
H	 0.519509	 -0.203625	 1.318070
C	 1.876099	 1.953160	 -0.412324
H	 2.616378	 0.125907	 0.443540
H	 2.084421	 -0.033570	 -1.206545
H	 1.670045	 2.449339	 0.531731
H	 2.848185	 2.290896	 -0.758629
H	 1.133755	 2.290253	 -1.130520

10 7 4 8 F

2 3 4 8 F

1 2 3 4 F

