%nprocshared=1
%mem=2GB
#HF/6-31G* nosymm scf=tight 

Mol

0 1
H	 1.308201	 -2.561167	 -1.788359
C	 1.257980	 -1.532759	 -1.441814
C	 0.136991	 -1.370689	 -0.419935
H	 1.079467	 -0.889054	 -2.295945
H	 2.229016	 -1.278675	 -1.030640
N	 -0.000257	 -0.000071	 0.054619
H	 -0.792336	 -1.663219	 -0.892327
H	 0.285204	 -2.063782	 0.413337
C	 -1.363055	 0.315058	 0.462241
C	 0.980064	 0.336181	 1.078612
C	 -2.412078	 -0.285320	 -0.468531
H	 -1.482241	 1.391144	 0.451970
H	 -1.549931	 -0.001174	 1.492681
C	 1.331962	 1.820475	 1.095347
H	 1.886689	 -0.220967	 0.879184
H	 0.640740	 0.019273	 2.069176
H	 -2.262839	 0.075384	 -1.480151
H	 -2.369300	 -1.368867	 -0.491760
H	 -3.410332	 -0.003975	 -0.144961
H	 1.724487	 2.121302	 0.130432
H	 0.472162	 2.444513	 1.314144
H	 2.084186	 2.022450	 1.852771
