%nprocshared=1
%mem=2GB
#HF/6-31G* nosymm scf=tight 

Mol

0 1
H	 -3.135461	 -1.215070	 0.001379
O	 -2.310168	 -0.871793	 -0.309793
C	 -2.026376	 0.340750	 0.341611
C	 -0.673256	 0.843270	 -0.132153
H	 -2.792215	 1.080697	 0.115987
H	 -2.013526	 0.200402	 1.421792
C	 0.486613	 -0.083066	 0.235839
H	 -0.715586	 0.970948	 -1.210718
H	 -0.508072	 1.829858	 0.297090
C	 1.840406	 0.433480	 -0.254303
H	 0.300215	 -1.068318	 -0.178947
H	 0.519509	 -0.203625	 1.318070
C	 2.988490	 0.086446	 0.692873
H	 2.048131	 0.019056	 -1.238590
H	 1.792705	 1.513210	 -0.382172
H	 3.084043	 -0.988778	 0.813924
H	 3.935753	 0.463023	 0.318939
H	 2.827594	 0.515806	 1.677898

10 7 4 8 F

2 3 4 8 F

1 2 3 4 F

