%nprocshared=1
%mem=2GB
#HF/6-31G* nosymm scf=tight 

Mol

0 1
O	 2.586941	 1.784559	 -0.452248
C	 1.973142	 1.514895	 -1.438803
C	 0.700342	 0.688218	 -1.399785
C	 2.429330	 1.984607	 -2.804972
C	 0.291004	 0.242674	 0.000989
H	 -0.091784	 1.274028	 -1.864276
H	 0.842101	 -0.172845	 -2.051612
C	 -0.994322	 -0.586602	 0.000262
H	 0.165233	 1.118130	 0.630185
H	 1.100028	 -0.330568	 0.442601
C	 -2.259874	 0.272531	 0.000494
H	 -1.004862	 -1.240012	 -0.870939
H	 -1.005220	 -1.241071	 0.870675
C	 -3.549786	 -0.549746	 -0.000374
H	 -2.250389	 0.926680	 -0.869574
H	 -2.250838	 0.925513	 0.871430
C	 -4.809590	 0.315458	 -0.000369
H	 -3.560515	 -1.202009	 -0.871156
H	 -3.561123	 -1.202955	 0.869711
H	 -4.844746	 0.956611	 -0.876632
H	 -5.706986	 -0.295590	 -0.001609
H	 -4.845960	 0.954827	 0.877144
H	 1.661449	 2.594404	 -3.272009
H	 3.338621	 2.561277	 -2.707626
H	 2.607156	 1.134884	 -3.457646

15 11 8 12 F

15 11 14 18 F

1 2 3 6 F

9 5 3 6 F

