%nprocshared=1
%mem=2GB
#HF/6-31G* nosymm scf=tight 

Mol

0 1
H	 -2.095764	 0.435638	 -2.350391
C	 -2.795213	 1.048318	 -1.768139
C	 -2.660244	 0.921717	 -0.272021
O	 -3.583432	 1.744001	 -2.321751
C	 -2.232264	 2.236951	 0.393747
H	 -3.601067	 0.560692	 0.127004
H	 -1.903436	 0.161506	 -0.082351
C	 -0.803443	 2.661084	 0.044634
H	 -2.924352	 3.016956	 0.090610
H	 -2.334365	 2.144995	 1.473967
C	 -0.394603	 3.978903	 0.705708
H	 -0.713561	 2.753471	 -1.035751
H	 -0.104432	 1.880468	 0.338848
C	 1.029138	 4.408256	 0.341612
H	 -1.101966	 4.752093	 0.416666
H	 -0.474161	 3.879489	 1.787453
C	 1.513076	 5.681063	 1.045770
H	 1.099293	 4.545809	 -0.736280
H	 1.710930	 3.597090	 0.588352
C	 0.761223	 6.952419	 0.648290
H	 2.568308	 5.816668	 0.822062
H	 1.447216	 5.543897	 2.123160
H	 0.796469	 7.106510	 -0.427015
H	 -0.282133	 6.916765	 0.943438
H	 1.202859	 7.824504	 1.120965

6 3 5 8 F

3 5 8 12 F

12 8 11 14 F

8 11 14 18 F

20 17 14 18 F

