%nprocshared=1
%mem=2GB
#HF/6-31G* nosymm scf=tight 

Mol

0 1
H	 -3.808872	 -2.365196	 0.178812
C	 -2.737391	 -2.272035	 0.184544
C	 -1.947533	 -3.389670	 0.408519
C	 -2.150769	 -1.035136	 -0.031990
H	 -2.403758	 -4.348351	 0.576315
C	 -0.569893	 -3.269094	 0.415742
H	 -2.764663	 -0.169886	 -0.205437
C	 -0.771936	 -0.912057	 -0.025204
H	 0.056954	 -4.123071	 0.587379
C	 0.022464	 -2.030285	 0.198978
H	 -0.313730	 0.043161	 -0.192314
C	 1.510589	 -1.953958	 0.216764
O	 1.970282	 -0.730723	 0.000018
O	 2.222814	 -2.889907	 0.405428
C	 3.377318	 -0.566646	 -0.000065
H	 3.695437	 -0.028981	 -0.881264
H	 3.789299	 -1.563704	 0.000236
H	 3.695516	 -0.028316	 0.880770

10 12 13 15 F

13 12 10 6 F

