%nprocshared=1
%mem=2GB
#HF/6-31G* nosymm scf=tight 

Mol

0 1
H	 0.104498	 -0.846293	 -1.735941
C	 0.300078	 0.232467	 -1.694350
C	 0.065331	 0.871482	 -0.349150
O	 0.672634	 0.809478	 -2.663875
C	 -1.339775	 0.583656	 0.198860
H	 0.244732	 1.936555	 -0.440515
H	 0.807907	 0.463641	 0.335254
C	 -1.808407	 -0.848507	 -0.061364
H	 -2.036183	 1.280685	 -0.256307
H	 -1.360094	 0.788874	 1.267089
H	 -1.828843	 -1.063152	 -1.125336
H	 -2.808409	 -1.004529	 0.329750
H	 -1.153967	 -1.577789	 0.406873

6 3 2 4 F

