%nprocshared=1
%mem=2GB
#HF/6-31G* nosymm scf=tight 

Mol

0 1
O	 1.193023	 1.330472	 -0.955394
C	 0.140502	 1.681556	 -1.381988
C	 -1.132561	 0.871331	 -1.354793
O	 -0.054281	 2.863688	 -1.952602
C	 -1.412532	 0.227344	 -0.000452
H	 -1.943418	 1.530676	 -1.652331
H	 -1.057793	 0.122680	 -2.138812
C	 -2.114783	 -1.124859	 -0.133704
H	 -2.019515	 0.899966	 0.597592
H	 -0.478013	 0.105190	 0.538303
C	 -3.583999	 -0.989347	 -0.531254
H	 -1.596187	 -1.732485	 -0.872572
H	 -2.044772	 -1.665151	 0.808238
H	 -3.685898	 -0.483126	 -1.486771
H	 -4.058156	 -1.961831	 -0.619151
H	 -4.137803	 -0.415854	 0.206341
C	 1.065166	 3.726192	 -2.042424
H	 1.444631	 3.960080	 -1.058153
H	 0.709774	 4.621320	 -2.528624
H	 1.850932	 3.269393	 -2.626729

9 5 8 12 F

1 2 3 6 F

1 2 4 17 F

