%nprocshared=1
%mem=2GB
#HF/6-31G* nosymm scf=tight 
prop=(read,field)

Mol

0 1
H	 3.893472	 0.355382	 -0.101368
N	 3.093138	 -0.246239	 -0.068771
C	 1.865843	 0.531963	 0.018833
H	 3.199798	 -0.826061	 0.741945
C	 0.646029	 -0.382055	 -0.029945
H	 1.842250	 1.207006	 -0.831237
H	 1.816040	 1.155392	 0.915078
C	 -0.678991	 0.379287	 0.025955
H	 0.699282	 -0.976933	 -0.937204
H	 0.693763	 -1.083864	 0.802234
C	 -1.903073	 -0.536981	 -0.023548
H	 -0.726025	 1.082969	 -0.803785
H	 -0.717396	 0.977814	 0.934876
C	 -3.224888	 0.228272	 0.028444
H	 -1.867540	 -1.135017	 -0.931460
H	 -1.860165	 -1.239622	 0.805976
H	 -3.313113	 0.915625	 -0.808263
H	 -4.073216	 -0.448152	 -0.008894
H	 -3.305777	 0.809927	 0.942515

@grid.dat /N
