%nprocshared=1
%mem=2GB
#HF/6-31G* nosymm scf=tight 

Mol

0 1
H	 -1.546115	 0.675197	 2.225001
C	 -1.152791	 0.357188	 1.279712
C	 -1.935045	 0.420530	 0.079050
C	 0.096180	 -0.116104	 1.182321
H	 -2.942024	 0.795993	 0.124510
C	 -1.421354	 0.017006	 -1.091742
H	 0.746006	 -0.195808	 2.033072
N	 0.640212	 -0.532897	 -0.000111
H	 -1.976107	 0.049777	 -2.009092
C	 -0.062221	 -0.497932	 -1.197459
C	 2.010177	 -1.032049	 0.000042
O	 0.436182	 -0.870314	 -2.230480
H	 2.187698	 -1.635381	 -0.882279
H	 2.677579	 -0.189247	 -0.001871
H	 2.188882	 -1.632203	 0.884288
