%nprocshared=1
%mem=2GB
#HF/6-31G* nosymm scf=tight 

Mol

0 1
H	 -0.000158	 1.970498	 0.756846
O	 -0.000074	 1.880206	 -0.189275
C	 -0.000015	 0.544847	 -0.545111
C	 -0.417064	 0.396653	 -2.004595
C	 -0.861391	 -0.251899	 0.429171
H	 1.012584	 0.180071	 -0.457452
F	 0.428424	 1.047915	 -2.774369
F	 -0.436011	 -0.860836	 -2.392825
F	 -1.621236	 0.908328	 -2.203986
F	 -0.378984	 -0.130165	 1.647367
F	 -0.896522	 -1.533411	 0.131055
F	 -2.103951	 0.203642	 0.439485

7 4 3 6 F

