%nprocshared=1
%mem=2GB
#HF/6-31G* nosymm scf=tight 

Mol

0 1
O	 0.888560	 1.036733	 0.704466
C	 0.576249	 0.131685	 -0.000108
C	 -0.766779	 -0.556801	 -0.000461
O	 1.391071	 -0.402883	 -0.900645
C	 -1.945214	 0.412366	 0.000161
H	 -0.796911	 -1.211249	 -0.867467
H	 -0.796854	 -1.212390	 0.865687
C	 -2.792042	 0.284927	 1.265550
H	 -2.558737	 0.230534	 -0.875698
H	 -1.574186	 1.427076	 -0.096153
H	 -3.201818	 -0.716050	 1.368415
H	 -3.623997	 0.981258	 1.246193
H	 -2.206677	 0.494849	 2.156479
C	 2.689147	 0.153576	 -1.003392
H	 2.634374	 1.198297	 -1.273763
H	 3.190088	 -0.407164	 -1.777016
H	 3.219560	 0.056275	 -0.067067

1 2 3 6 F

14 4 2 1 F

