%nprocshared=1
%mem=2GB
#HF/6-31G* nosymm scf=tight 

Mol

0 1
O	 -2.821601	 1.309235	 -0.001213
C	 -2.668563	 0.129746	 -0.000350
C	 -3.801572	 -0.864014	 -0.000442
O	 -1.481751	 -0.454642	 0.000584
H	 -4.417280	 -0.689587	 -0.874708
H	 -3.443784	 -1.883046	 -0.000565
H	 -4.417179	 -0.689832	 0.873954
C	 -0.334255	 0.388708	 0.000906
C	 0.891947	 -0.504646	 0.000751
H	 -0.365390	 1.025305	 -0.873475
H	 -0.365484	 1.024911	 0.875569
C	 0.703909	 -1.740889	 0.882122
H	 1.746223	 0.071579	 0.345160
H	 1.107369	 -0.805116	 -1.020901
C	 1.930472	 -2.655045	 0.895961
H	 0.477559	 -1.430475	 1.900697
H	 -0.159764	 -2.306218	 0.536357
C	 1.743101	 -3.889107	 1.777351
H	 2.794400	 -2.091796	 1.241582
H	 2.156702	 -2.968050	 -0.120856
H	 1.548565	 -3.608702	 2.808634
H	 2.628562	 -4.516868	 1.766885
H	 0.906317	 -4.491705	 1.435770

2 4 8 10 F

16 12 9 13 F

19 15 12 16 F

1 2 4 8 F

