%nprocshared=1
%mem=2GB
#HF/6-31G* nosymm scf=tight opt=ModRedundant

Mol

0 1
H	 -1.385000	 -0.000000	 1.227000
C	 -1.164000	 -0.000000	 0.160000
H	 -2.079000	 -0.000000	 -0.411000
O	 -0.404000	 1.110000	 -0.179000
O	 -0.404000	 -1.110000	 -0.179000
C	 0.940000	 0.772000	 0.048000
C	 0.940000	 -0.772000	 0.048000
H	 1.278000	 1.173000	 0.998000
H	 1.538000	 1.200000	 -0.744000
H	 1.539000	 -1.199000	 -0.744000
H	 1.278000	 -1.173000	 0.998000
