%nprocshared=1
%mem=2GB
#HF/6-31G* nosymm scf=tight 

Mol

0 1
H	 1.148083	 -1.049780	 0.784252
O	 1.319262	 -0.618148	 -0.041729
C	 0.709265	 0.639550	 -0.033818
C	 1.662212	 1.788929	 -0.232314
H	 0.221659	 0.733081	 0.929871
H	 -0.076668	 0.693212	 -0.786450
C	 2.976548	 1.694188	 -0.249851
H	 1.192888	 2.751672	 -0.364012
H	 3.478106	 0.754750	 -0.103817
H	 3.597802	 2.559171	 -0.397581

5 3 4 7 F

3 4 7 9 F

