%nprocshared=1
%mem=2GB
#HF/6-31G* nosymm scf=tight 

Mol

0 1
O	 2.544561	 1.850230	 -0.436504
C	 1.838777	 1.723109	 -1.389639
C	 0.569680	 0.890692	 -1.352025
C	 2.167518	 2.390316	 -2.709457
C	 0.291004	 0.242674	 0.000989
H	 -0.258633	 1.532446	 -1.649411
H	 0.643551	 0.134968	 -2.132938
C	 -0.994322	 -0.586602	 0.000262
H	 0.231019	 1.016052	 0.760210
H	 1.134073	 -0.383189	 0.276087
C	 -2.259874	 0.272531	 0.000494
H	 -1.004862	 -1.240012	 -0.870939
H	 -1.005220	 -1.241071	 0.870675
C	 -2.954444	 0.327595	 -1.361326
H	 -2.008014	 1.283392	 0.316320
H	 -2.955941	 -0.113109	 0.743306
C	 -4.217618	 1.187832	 -1.353152
H	 -2.260003	 0.714053	 -2.104445
H	 -3.208054	 -0.682176	 -1.677403
H	 -3.991854	 2.213022	 -1.073571
H	 -4.686830	 1.207787	 -2.332000
H	 -4.947103	 0.806249	 -0.644356
H	 1.363265	 3.056339	 -3.008133
H	 3.085857	 2.952964	 -2.615040
H	 2.277291	 1.646185	 -3.492945

9 5 8 12 F

15 11 14 18 F

1 2 3 6 F

9 5 3 6 F

