%nprocshared=1
%mem=2GB
#HF/6-31G* nosymm scf=tight opt=ModRedundant

Mol

0 1
H	 1.596000	 1.287000	 0.000000
C	 0.933000	 0.414000	 -0.000000
C	 -0.540000	 0.734000	 0.000000
O	 1.389000	 -0.683000	 0.000000
C	 -1.435000	 -0.500000	 -0.000000
H	 -0.736000	 1.364000	 -0.866000
H	 -0.736000	 1.364000	 0.867000
H	 -1.250000	 -1.112000	 -0.875000
H	 -2.481000	 -0.210000	 0.000000
H	 -1.250000	 -1.112000	 0.875000
