%nprocshared=1
%mem=2GB
#HF/6-31G* nosymm scf=tight 

Mol

0 1
H	 -3.420663	 1.227371	 -1.044276
O	 -3.452007	 0.283848	 -0.965577
C	 -3.181085	 -0.079926	 0.364119
C	 -1.765924	 0.277073	 0.805136
H	 -3.327791	 -1.152017	 0.410903
H	 -3.905698	 0.375695	 1.036898
C	 -0.677594	 -0.417312	 -0.014550
H	 -1.637766	 1.358238	 0.744969
H	 -1.659588	 0.017670	 1.857098
C	 0.738335	 -0.034840	 0.421385
H	 -0.814977	 -0.178223	 -1.064632
H	 -0.802730	 -1.495410	 0.071702
C	 0.886057	 1.461235	 0.711255
H	 1.004875	 -0.612256	 1.303409
H	 1.446122	 -0.320441	 -0.355836
C	 0.744413	 2.369506	 -0.515586
H	 1.851018	 1.642736	 1.182003
H	 0.133856	 1.749755	 1.442532
C	 0.615338	 3.859235	 -0.192394
H	 -0.134038	 2.057455	 -1.075262
H	 1.594866	 2.215833	 -1.176886
H	 -0.220254	 4.041841	 0.478112
H	 0.444687	 4.436365	 -1.096074
H	 1.510013	 4.251882	 0.279356

20 16 13 17 F

17 13 10 7 F

11 7 4 3 F

1 2 3 5 F

7 4 3 2 F

