%nprocshared=1
%mem=2GB
#HF/6-31G* nosymm scf=tight 

Mol

0 1
H	 -1.186468	 2.073113	 -0.318322
C	 -0.639051	 1.506674	 0.427883
N	 -0.528168	 0.128977	 -0.000000
H	 -1.197795	 1.556359	 1.355447
H	 0.323909	 2.001354	 0.580409
C	 0.248044	 -0.037491	 -1.209632
H	 -0.131877	 -0.422515	 0.734737
H	 0.998722	 0.743888	 -1.266824
H	 -0.398417	 0.061950	 -2.074060
H	 0.763621	 -0.999315	 -1.275517
