%nprocshared=1
%mem=2GB
#HF/6-31G* nosymm scf=tight 

Mol

0 1
H	 2.112546	 0.952243	 -2.938066
O	 1.914520	 0.966136	 -2.012595
C	 0.635657	 1.510761	 -1.811386
C	 0.352047	 1.517040	 -0.319650
H	 0.584987	 2.525100	 -2.204903
H	 -0.118048	 0.921194	 -2.331656
C	 0.198102	 0.111031	 0.262842
H	 -0.551339	 2.095325	 -0.145847
H	 1.160592	 2.043556	 0.179864
C	 1.331804	 -0.827780	 -0.158768
H	 0.155409	 0.176204	 1.347325
H	 -0.753023	 -0.312840	 -0.056864
C	 2.723619	 -0.410569	 0.329459
H	 1.342964	 -0.912588	 -1.244120
H	 1.116806	 -1.824343	 0.220779
C	 3.243875	 0.895854	 -0.272975
H	 3.424222	 -1.207124	 0.091250
H	 2.714788	 -0.329854	 1.414619
H	 3.251977	 0.848779	 -1.358681
H	 2.637085	 1.747371	 0.016682
H	 4.259473	 1.094070	 0.055697

2 3 4 8 F

8 4 7 10 F

16 13 10 14 F

1 2 3 5 F

