%nprocshared=1
%mem=2GB
#HF/6-31G* nosymm scf=tight 

Mol

0 1
O	 -2.334787	 -2.184922	 0.034419
C	 -1.213788	 -1.777832	 -0.011128
C	 -0.889235	 -0.467034	 -0.705952
C	 -0.071503	 -2.522582	 0.643018
C	 -1.047154	 -0.600408	 -2.229242
H	 0.138843	 -0.215205	 -0.469432
H	 -1.526829	 0.330367	 -0.334938
C	 0.149006	 -1.302371	 -2.876593
H	 -1.963033	 -1.145506	 -2.427781
H	 -1.166334	 0.386787	 -2.673077
C	 0.075323	 -1.399736	 -4.404711
H	 0.247240	 -2.302033	 -2.457363
H	 1.057485	 -0.767858	 -2.606759
C	 -1.053427	 -2.288511	 -4.930067
H	 1.023541	 -1.787350	 -4.768483
H	 -0.024340	 -0.400645	 -4.824201
H	 -0.984148	 -3.291584	 -4.518035
H	 -1.004790	 -2.372263	 -6.011279
H	 -2.032469	 -1.894716	 -4.678683
H	 0.612719	 -2.884896	 -0.119763
H	 -0.452400	 -3.360154	 1.210622
H	 0.495022	 -1.862768	 1.293786

6 3 2 1 F

3 5 8 12 F

12 8 11 15 F

