%nprocshared=1
%mem=2GB
#HF/6-31G* nosymm scf=tight 

Mol

0 1
H	 -2.499100	 -0.730091	 -0.745082
O	 -2.347518	 -0.290803	 0.079804
C	 -1.184022	 0.487508	 -0.006784
C	 0.062599	 -0.378592	 0.031606
H	 -1.176523	 1.099369	 -0.904519
H	 -1.187323	 1.153111	 0.844927
O	 -0.184698	 -1.450972	 0.885202
H	 0.913871	 0.205669	 0.386510
H	 0.299694	 -0.722350	 -0.973481
C	 0.867796	 -2.356156	 0.994924
H	 1.763336	 -1.879218	 1.388838
H	 0.557962	 -3.136443	 1.676142
H	 1.109432	 -2.802811	 0.032685

1 2 3 5 F

10 7 4 8 F

4 7 10 13 F

