%nprocshared=1
%mem=2GB
#HF/6-31G* nosymm scf=tight 

Mol

0 1
H	 -0.833944	 0.732426	 -2.749135
O	 -0.645985	 1.549203	 -2.307093
C	 0.039063	 1.277516	 -1.119297
C	 -0.795902	 0.595680	 -0.067389
H	 0.386477	 2.233790	 -0.745069
H	 0.927910	 0.678163	 -1.313595
C	 -1.522220	 -0.487727	 -0.255690
H	 -0.774390	 1.063722	 0.904700
H	 -1.071454	 -1.449856	 -0.418625
H	 -2.596511	 -0.445958	 -0.267127

5 3 2 1 F

5 3 4 7 F

