%nprocshared=1
%mem=2GB
#HF/6-31G* nosymm scf=tight 

Mol

0 1
O	 -2.228323	 -1.254508	 -4.423960
C	 -2.463915	 -2.246031	 -3.802821
C	 -2.109917	 -2.344058	 -2.329260
C	 -3.151003	 -3.435190	 -4.436213
C	 -0.586887	 -2.421186	 -2.135424
H	 -2.570357	 -3.245464	 -1.939690
H	 -2.511341	 -1.495610	 -1.782432
C	 0.149006	 -1.302371	 -2.876593
H	 -0.378629	 -2.376279	 -1.072411
H	 -0.221113	 -3.384688	 -2.487022
C	 0.075323	 -1.399736	 -4.404711
H	 1.192515	 -1.294087	 -2.567164
H	 -0.267693	 -0.345251	 -2.569787
C	 -1.053427	 -2.288511	 -4.930067
H	 1.023541	 -1.787350	 -4.768483
H	 -0.024340	 -0.400645	 -4.824201
H	 -0.984148	 -3.291584	 -4.518035
H	 -1.004790	 -2.372263	 -6.011279
H	 -2.032469	 -1.894716	 -4.678683
H	 -2.465853	 -4.278263	 -4.468816
H	 -3.465544	 -3.189233	 -5.440879
H	 -4.009144	 -3.742854	 -3.845669

6 3 2 1 F

6 3 5 8 F

3 5 8 12 F

