%nprocshared=1
%mem=2GB
#HF/6-31G* nosymm scf=tight 

Mol

0 1
H	 -2.145606	 1.483109	 1.763384
C	 -1.736537	 0.816116	 1.027749
C	 -2.561133	 0.137683	 0.146433
C	 -0.373540	 0.625560	 0.951092
H	 -3.626843	 0.272935	 0.190143
C	 -2.020782	 -0.717737	 -0.795377
H	 0.290851	 1.134919	 1.617362
C	 0.154804	 -0.237046	 -0.000077
H	 -2.677431	 -1.234769	 -1.470348
C	 -0.649260	 -0.937871	 -0.905258
N	 1.611208	 -0.370857	 -0.000034
C	 -0.167909	 -1.895478	 -1.973070
O	 2.274126	 0.622059	 -0.008063
O	 2.068510	 -1.474748	 0.007823
H	 0.372343	 -2.728765	 -1.545415
H	 -1.022322	 -2.277979	 -2.517171
H	 0.498850	 -1.409304	 -2.671777
