%nprocshared=1
%mem=2GB
#HF/6-31G* nosymm scf=tight 

Mol

0 1
H	 2.451652	 -2.178703	 0.543297
O	 2.773837	 -1.297590	 0.410870
C	 1.759943	 -0.431505	 0.213148
C	 1.481518	 -0.063058	 -1.099357
C	 1.010290	 0.085882	 1.251639
H	 2.078497	 -0.478954	 -1.888980
C	 0.455901	 0.820010	 -1.366497
H	 1.202823	 -0.180621	 2.272146
C	 -0.012190	 0.970159	 0.947655
H	 0.247825	 1.099032	 -2.382720
C	 -0.311927	 1.353819	 -0.340177
N	 -0.802158	 1.514544	 2.049962
H	 -1.110728	 2.039872	 -0.531628
O	 -0.648252	 1.033900	 3.132241
O	 -1.554410	 2.406888	 1.804800

11 9 12 14 F

