%nprocshared=1
%mem=2GB
#HF/6-31G* nosymm scf=tight 

Mol

0 1
O	 3.225979	 0.970355	 -0.599647
C	 2.701189	 0.057885	 -0.047330
C	 1.245376	 -0.013843	 0.345420
O	 3.347903	 -1.046386	 0.304773
C	 0.455112	 1.231400	 -0.050772
H	 0.838542	 -0.913825	 -0.103701
H	 1.208210	 -0.175333	 1.419774
C	 -0.998893	 1.219485	 0.433193
H	 0.482531	 1.345121	 -1.130325
H	 0.957290	 2.103070	 0.354729
C	 -1.883438	 0.145884	 -0.207175
H	 -1.431207	 2.195402	 0.224832
H	 -1.019646	 1.105716	 1.516076
C	 -1.822435	 0.158846	 -1.735936
H	 -1.576992	 -0.833725	 0.156524
H	 -2.917258	 0.277600	 0.104014
C	 -2.461437	 1.402004	 -2.357520
H	 -2.317131	 -0.730247	 -2.123265
H	 -0.783613	 0.092049	 -2.055446
C	 -2.001525	 2.702526	 -1.699627
H	 -2.228556	 1.433333	 -3.419794
H	 -3.544301	 1.324875	 -2.285141
H	 -2.471518	 3.565208	 -2.161681
H	 -0.925689	 2.826366	 -1.785868
H	 -2.251064	 2.716707	 -0.642365
C	 4.728119	 -1.109107	 -0.004993
H	 4.882018	 -1.033965	 -1.071845
H	 5.068212	 -2.067527	 0.355250
H	 5.265056	 -0.311663	 0.488280

21 17 14 11 F

17 14 11 15 F

6 3 5 9 F

11 8 5 9 F

2 4 26 27 F

1 2 4 26 F

6 3 2 1 F

