%nprocshared=1
%mem=2GB
#HF/6-31G* nosymm scf=tight 

Mol

0 1
H	 2.855753	 0.099359	 -2.139937
O	 1.933191	 -0.085432	 -2.246422
C	 1.245498	 0.219436	 -1.124582
C	 1.861317	 0.734287	 0.008996
C	 -0.121209	 0.001484	 -1.130886
H	 2.925043	 0.903152	 0.011816
C	 1.110833	 1.030581	 1.134453
H	 -0.598127	 -0.396149	 -2.005822
C	 -0.865228	 0.300799	 0.000000
H	 1.598542	 1.428570	 2.005730
C	 -0.255568	 0.815933	 1.136980
C	 -2.333960	 0.069074	 0.000000
H	 -0.840435	 1.045368	 2.010076
O	 -2.847347	 -1.003763	 0.000000
H	 -2.943845	 0.977528	 0.000000

4 3 2 1 F

