%nprocshared=1
%mem=2GB
#HF/6-31G* nosymm scf=tight 

Mol

0 1
H	 -2.646374	 -0.642757	 1.268656
C	 -2.083525	 -0.384536	 0.393091
O	 -0.807605	 -0.127164	 0.768327
F	 -2.118945	 -1.383102	 -0.486752
F	 -2.621877	 0.670592	 -0.209486
C	 0.172799	 -0.172026	 -0.206087
C	 -0.302598	 0.706503	 -1.356018
Cl	 0.437844	 -1.833772	 -0.758868
H	 1.115884	 0.209889	 0.143921
F	 -1.339077	 0.159056	 -1.954476
F	 0.670398	 0.813198	 -2.238817
F	 -0.633388	 1.909819	 -0.955289

10 7 6 9 F

9 6 3 2 F

