%nprocshared=1
%mem=2GB
#HF/6-31G* nosymm scf=tight 

Mol

0 1
H	 -2.698709	 -0.000305	 0.034435
C	 -1.693833	 0.000034	 0.434417
O	 -0.828952	 -0.000968	 -0.659236
H	 -1.574200	 0.882896	 1.055746
H	 -1.574147	 -0.881698	 1.057355
C	 0.074329	 -1.072314	 -0.803474
C	 1.232989	 -0.998569	 0.188991
C	 -0.621737	 -2.431742	 -0.783268
H	 0.478700	 -0.921406	 -1.797326
H	 1.670243	 -0.005932	 0.183686
H	 2.003597	 -1.711615	 -0.086625
H	 0.921438	 -1.230774	 1.202491
H	 -1.468630	 -2.430852	 -1.460931
H	 0.068409	 -3.206775	 -1.101837
H	 -0.975579	 -2.697626	 0.207662

9 6 3 2 F

