%nprocshared=1
%mem=2GB
#HF/6-31G* nosymm scf=tight 

Mol

0 1
H	 1.220884	 0.362399	 0.994843
N	 0.250717	 0.213669	 0.795770
C	 0.026763	 -1.134651	 0.304871
H	 -0.014215	 0.874180	 0.091039
C	 0.616722	 -1.284687	 -1.081697
H	 0.449900	 -1.910547	 0.944358
H	 -1.043215	 -1.309083	 0.245705
O	 -0.088814	 -0.446451	 -1.951562
H	 1.671983	 -1.012667	 -1.073436
H	 0.532992	 -2.320015	 -1.404686
C	 0.295968	 -0.548357	 -3.285402
H	 1.077210	 -1.293847	 -3.345427
H	 -0.534823	 -0.858547	 -3.916710
H	 0.680852	 0.397273	 -3.661511

8 5 3 6 F

6 3 2 4 F

11 8 5 3 F

