%nprocshared=1
%mem=2GB
#HF/6-31G* nosymm scf=tight 

Mol

0 1
H	 -1.551999	 -0.797378	 0.339087
N	 -0.626943	 -0.667432	 -0.000092
C	 -0.368252	 -0.929191	 -1.397690
C	 0.325755	 -0.252874	 0.869779
H	 -1.218629	 -1.413427	 -1.866070
H	 0.487083	 -1.581507	 -1.465600
H	 -0.153316	 -0.009903	 -1.932239
C	 1.674978	 -0.919497	 0.690344
O	 0.127974	 0.574320	 1.716447
H	 2.068026	 -0.726742	 -0.302990
H	 2.359261	 -0.526889	 1.427442
H	 1.590945	 -1.994555	 0.814939

4 2 3 5 F

