%nprocshared=1
%mem=2GB
#HF/6-31G* nosymm scf=tight 

Mol

0 1
H	 -2.548981	 -0.326532	 1.783257
C	 -2.487351	 -0.668080	 0.751905
O	 -1.196369	 -0.539910	 0.249634
H	 -2.749380	 -1.716438	 0.714113
H	 -3.206054	 -0.104547	 0.158336
C	 -0.719715	 0.768384	 0.229244
C	 0.719720	 0.768376	 -0.229267
H	 -1.313612	 1.376560	 -0.454207
H	 -0.781021	 1.218155	 1.218159
O	 1.392611	 -0.295398	 0.366430
H	 0.750534	 0.687200	 -1.313918
H	 1.185043	 1.714359	 0.050526
C	 2.706965	 -0.449871	 -0.062409
H	 2.756559	 -0.644779	 -1.131878
H	 3.305899	 0.433456	 0.155466
H	 3.125548	 -1.294566	 0.467107

7 10 13 14 F

2 3 6 7 F

