%nprocshared=1
%mem=2GB
#HF/6-31G* nosymm scf=tight 

Mol

0 1
H	 2.465338	 -2.224223	 0.000000
O	 2.784187	 -1.332015	 0.000000
C	 1.765313	 -0.449364	 0.000000
C	 2.092008	 0.903120	 0.000000
C	 0.440931	 -0.841978	 0.000000
H	 3.128654	 1.182804	 0.000000
C	 1.093712	 1.855207	 0.000000
H	 0.160598	 -1.876840	 0.000000
C	 -0.536158	 0.140425	 0.000000
H	 1.354898	 2.897147	 0.000000
C	 -0.244776	 1.486027	 0.000000
N	 -1.935604	 -0.280333	 0.000000
H	 -1.030305	 2.212903	 0.000000
O	 -2.161694	 -1.452901	 0.000000
O	 -2.770341	 0.571417	 0.000000

4 3 2 1 F

