%nprocshared=1
%mem=2GB
#HF/6-31G* nosymm scf=tight 

Mol

0 1
H	 1.364643	 1.156293	 1.425799
C	 0.463135	 1.272468	 0.840060
O	 0.000000	 0.000000	 0.521119
H	 -0.268054	 1.827871	 1.425364
H	 0.696071	 1.847898	 -0.054541
C	 -1.165642	 0.000000	 -0.238270
H	 -1.228672	 0.883184	 -0.872070
H	 -2.003012	 0.000000	 0.445920
H	 -1.228672	 -0.883184	 -0.872070
