%nprocshared=1
%mem=2GB
#HF/6-31G* nosymm scf=tight 

Mol

0 1
O	 -1.596890	 0.185178	 -4.546137
C	 -2.431908	 -0.396132	 -3.922231
C	 -2.267060	 -0.630535	 -2.430861
C	 -3.702659	 -0.897396	 -4.571309
C	 -1.154743	 -1.655618	 -2.156822
H	 -3.209780	 -1.009400	 -2.051329
H	 -2.046735	 0.302133	 -1.919378
C	 0.149006	 -1.302371	 -2.876593
H	 -0.997772	 -1.705878	 -1.085272
H	 -1.481981	 -2.644789	 -2.473368
C	 0.075323	 -1.399736	 -4.404711
H	 0.945095	 -1.949752	 -2.513458
H	 0.434439	 -0.287547	 -2.607320
C	 -1.053427	 -2.288511	 -4.930067
H	 1.023541	 -1.787350	 -4.768483
H	 -0.024340	 -0.400645	 -4.824201
H	 -0.984148	 -3.291584	 -4.518035
H	 -1.004790	 -2.372263	 -6.011279
H	 -2.032469	 -1.894716	 -4.678683
H	 -3.717265	 -1.984030	 -4.554653
H	 -3.756255	 -0.553355	 -5.594807
H	 -4.575340	 -0.557142	 -4.021347

6 3 2 1 F

6 3 5 8 F

3 5 8 12 F

