%nprocshared=1
%mem=2GB
#HF/6-31G* nosymm scf=tight 

Mol

0 1
H	 2.762751	 1.921259	 -1.173584
N	 2.000309	 1.273642	 -1.226681
C	 1.865559	 0.531981	 0.018834
H	 2.201831	 0.651008	 -1.985988
C	 0.645745	 -0.382037	 -0.029944
H	 1.740934	 1.253718	 0.820347
H	 2.751575	 -0.058782	 0.264545
C	 -0.679275	 0.379305	 0.025956
H	 0.698998	 -0.976915	 -0.937203
H	 0.693479	 -1.083846	 0.802235
C	 -1.149677	 0.666303	 1.453096
H	 -1.446126	 -0.192473	 -0.494485
H	 -0.582238	 1.319939	 -0.514080
C	 -2.476084	 1.423628	 1.504222
H	 -1.248602	 -0.272130	 1.994181
H	 -0.386476	 1.239838	 1.974859
H	 -3.268389	 0.859749	 1.019858
H	 -2.783018	 1.611486	 2.528480
H	 -2.399570	 2.383309	 1.000684

6 3 5 9 F

12 8 11 15 F

1 2 3 6 F

