%nprocshared=1
%mem=2GB
#HF/6-31G* nosymm scf=tight 

Mol

0 1
O	 0.359350	 -0.251000	 -2.297154
C	 0.002299	 0.322791	 -1.303181
C	 -1.157642	 1.299041	 -1.362838
N	 0.623947	 0.147590	 -0.102813
H	 -0.855679	 2.294335	 -1.055767
H	 -1.498740	 1.332484	 -2.386351
H	 -1.977072	 0.984330	 -0.725600
C	 1.665360	 -0.855771	 0.000151
C	 0.103767	 0.631734	 1.157053
H	 2.465253	 -0.618490	 -0.692587
H	 1.257730	 -1.821716	 -0.242189
H	 2.081488	 -0.891645	 1.004627
H	 0.931731	 0.869909	 1.814159
H	 -0.478381	 1.530177	 1.027291
H	 -0.515326	 -0.112919	 1.654071

8 4 2 3 F

