%nprocshared=1
%mem=2GB
#HF/6-31G* nosymm scf=tight 

Mol

0 1
H	 0.520913	 -3.355335	 -0.750069
O	 0.895837	 -2.618051	 -0.278264
C	 0.102382	 -1.563045	 -0.462125
C	 0.624473	 -0.343591	 0.253101
O	 -0.886133	 -1.623171	 -1.118051
C	 -0.265902	 0.883932	 0.072916
H	 0.740303	 -0.614115	 1.297502
H	 1.628992	 -0.158063	 -0.118751
C	 -1.728698	 0.646073	 0.462102
H	 -0.209144	 1.219470	 -0.958188
H	 0.135059	 1.692851	 0.673903
C	 -2.003984	 0.641095	 1.968472
H	 -2.035306	 -0.312899	 0.050854
H	 -2.358521	 1.394451	 -0.016864
C	 -1.376106	 1.837023	 2.684017
H	 -3.079147	 0.644034	 2.135983
H	 -1.626802	 -0.274726	 2.416120
H	 -1.583106	 1.810825	 3.749276
H	 -1.763004	 2.774182	 2.294310
H	 -0.297226	 1.847407	 2.556946

16 12 9 6 F

7 4 6 10 F

5 3 4 7 F

1 2 3 5 F

