%nprocshared=1
%mem=2GB
#HF/6-31G* nosymm scf=tight 

Mol

0 1
H	 -2.798360	 -0.862255	 -0.071053
N	 -1.863561	 -0.715187	 0.256814
C	 -1.344686	 0.554728	 -0.219830
H	 -1.300452	 -1.461917	 -0.101532
C	 -0.178931	 0.992991	 0.641609
H	 -1.014525	 0.531663	 -1.259283
H	 -2.129844	 1.300759	 -0.144015
O	 -0.657110	 1.243472	 1.932225
H	 0.582720	 0.214040	 0.669212
H	 0.267028	 1.892629	 0.223271
C	 0.299990	 1.738993	 2.813127
H	 -0.181766	 1.891012	 3.769422
H	 1.123074	 1.038325	 2.941884
H	 0.705280	 2.687672	 2.467354

8 5 3 6 F

5 8 11 13 F

11 8 5 3 F

