%nprocshared=1
%mem=2GB
#HF/6-31G* nosymm scf=tight 

Mol

0 1
H	 -3.135461	 -1.215070	 0.001379
O	 -2.310168	 -0.871793	 -0.309793
C	 -2.026376	 0.340750	 0.341611
C	 -0.673256	 0.843270	 -0.132153
H	 -2.792215	 1.080697	 0.115987
H	 -2.013526	 0.200402	 1.421792
C	 0.486613	 -0.083066	 0.235839
H	 -0.715586	 0.970948	 -1.210718
H	 -0.508072	 1.829858	 0.297090
C	 1.632798	 0.647138	 0.937891
H	 0.857034	 -0.563718	 -0.663759
H	 0.118618	 -0.878404	 0.883031
C	 2.457014	 1.514656	 -0.012768
H	 1.228532	 1.269271	 1.733653
H	 2.284843	 -0.078700	 1.420010
H	 1.839206	 2.273333	 -0.484588
H	 3.260569	 2.021738	 0.512695
H	 2.903852	 0.916183	 -0.801866

14 10 7 11 F

2 3 4 8 F

1 2 3 4 F

