%nprocshared=1
%mem=2GB
#HF/6-31G* nosymm scf=tight 

Mol

0 1
H	 3.301248	 -0.421704	 -0.018187
C	 2.241050	 -0.241745	 -0.014277
C	 1.463567	 -0.721459	 1.032745
C	 1.659207	 0.466474	 -1.052480
H	 1.922569	 -1.270328	 1.834982
C	 0.101728	 -0.492130	 1.040894
H	 2.263820	 0.835985	 -1.860656
C	 0.292878	 0.695878	 -1.043141
H	 -0.516661	 -0.854322	 1.840621
C	 -0.488460	 0.219100	 0.000000
H	 -0.165235	 1.245741	 -1.847336
C	 -1.949954	 0.470334	 0.000000
O	 -2.781584	 -0.381627	 0.000000
H	 -2.238022	 1.526388	 0.000000
