%nprocshared=1
%mem=2GB
#HF/6-31G* nosymm scf=tight 

Mol

0 1
O	 -2.324811	 1.361668	 -0.277141
C	 -2.105949	 0.203097	 -0.092081
C	 -0.889235	 -0.467034	 -0.705952
C	 -3.002726	 -0.644460	 0.782455
C	 -1.162672	 -1.954800	 -0.979683
H	 -0.071087	 -0.373394	 -0.000140
H	 -0.601033	 0.032999	 -1.626241
C	 0.055953	 -2.669108	 -1.569032
H	 -1.464424	 -2.420101	 -0.048112
H	 -2.002065	 -2.052765	 -1.666392
C	 -0.183835	 -4.140423	 -1.926506
H	 0.885096	 -2.600572	 -0.867211
H	 0.371705	 -2.141371	 -2.466608
C	 -0.452812	 -5.049286	 -0.725832
H	 0.690591	 -4.510287	 -2.455913
H	 -1.013634	 -4.209545	 -2.627038
H	 0.357097	 -4.991699	 -0.003713
H	 -0.541265	 -6.084604	 -1.039985
H	 -1.371969	 -4.785860	 -0.213438
H	 -3.496582	 -1.399307	 0.176174
H	 -3.747939	 -0.023774	 1.260148
H	 -2.421318	 -1.168775	 1.535358

6 3 5 8 F

3 5 8 12 F

12 8 11 15 F

