%nprocshared=1
%mem=2GB
#HF/6-31G* nosymm scf=tight 

Mol

0 1
H	 2.451652	 -2.178703	 0.543297
O	 2.773837	 -1.297590	 0.410870
C	 1.759943	 -0.431505	 0.213148
C	 1.862124	 0.819302	 0.813966
C	 0.651926	 -0.744916	 -0.549876
H	 2.733179	 1.038798	 1.402136
C	 0.856814	 1.749449	 0.648912
H	 0.547115	 -1.700752	 -1.024130
C	 -0.338916	 0.212707	 -0.694816
H	 0.943868	 2.712675	 1.116326
C	 -0.266768	 1.458510	 -0.113164
N	 -1.508931	 -0.123973	 -1.503022
H	 -1.054778	 2.169580	 -0.250365
O	 -1.468934	 -1.131207	 -2.143267
O	 -2.435452	 0.626433	 -1.476288

11 9 12 14 F

