%nprocshared=1
%mem=2GB
#HF/6-31G* nosymm scf=tight 

Mol

0 1
H	 -2.737939	 0.127929	 0.863200
O	 -1.822003	 -0.104182	 0.910713
C	 -1.160618	 0.338487	 -0.247158
C	 -0.968416	 1.850458	 -0.288753
H	 -0.195981	 -0.152544	 -0.240998
H	 -1.688281	 0.002977	 -1.139226
C	 -0.414287	 2.443321	 1.009061
H	 -0.302396	 2.090847	 -1.113373
H	 -1.930171	 2.308421	 -0.513840
C	 -1.410005	 2.360487	 2.169450
H	 -0.140464	 3.480899	 0.839300
H	 0.500452	 1.918609	 1.285235
C	 -2.087810	 0.996018	 2.340165
H	 -0.904223	 2.629349	 3.095056
H	 -2.182111	 3.111740	 2.017227
C	 -3.034785	 0.600176	 1.203932
H	 -1.312383	 0.237538	 2.425248
H	 -2.630424	 0.979861	 3.284170
C	 -4.465221	 1.099239	 1.418936
H	 -3.044660	 -0.484477	 1.106250
H	 -2.666261	 0.987989	 0.257311
C	 -5.411106	 0.710962	 0.283063
H	 -4.847259	 0.703375	 2.357459
H	 -4.456195	 2.181939	 1.526468
H	 -5.467273	 -0.368187	 0.171231
H	 -6.416738	 1.077069	 0.465559
H	 -5.076338	 1.123259	 -0.664726

14 10 7 4 F

14 10 13 16 F

10 7 4 8 F

8 4 3 2 F

20 16 19 22 F

4 3 2 1 F

