%nprocshared=1
%mem=2GB
#HF/6-31G* nosymm scf=tight 

Mol

0 1
H	 3.729471	 -0.928294	 -0.070608
O	 2.826016	 -1.159218	 0.122261
C	 2.077727	 -0.067559	 -0.035091
C	 0.624473	 -0.343591	 0.253101
O	 2.542965	 0.974826	 -0.363729
C	 -0.265902	 0.883932	 0.072916
H	 0.324016	 -1.163849	 -0.390541
H	 0.565024	 -0.726111	 1.268924
C	 -1.728698	 0.646073	 0.462102
H	 -0.209144	 1.219470	 -0.958188
H	 0.135059	 1.692851	 0.673903
C	 -2.482460	 -0.343073	 -0.431425
H	 -2.245265	 1.602650	 0.432430
H	 -1.779332	 0.308348	 1.496285
C	 -3.983168	 -0.058042	 -0.487198
H	 -2.069836	 -0.303001	 -1.437496
H	 -2.330086	 -1.359632	 -0.078194
H	 -4.495551	 -0.772110	 -1.124289
H	 -4.178974	 0.935835	 -0.879239
H	 -4.430095	 -0.116556	 0.501270

7 4 6 10 F

12 9 6 10 F

5 3 4 7 F

1 2 3 5 F

