%nprocshared=1
%mem=2GB
#HF/6-31G* nosymm scf=tight 

Mol

0 1
O	 0.391030	 1.298905	 0.000133
C	 0.503002	 0.111612	 0.000005
C	 -0.702327	 -0.811998	 -0.000075
C	 1.863306	 -0.554493	 0.000030
C	 -0.506368	 -2.071646	 0.834813
H	 -1.559488	 -0.242397	 0.354328
H	 -0.929328	 -1.064664	 -1.034191
H	 -0.304856	 -1.823786	 1.869790
H	 -1.396152	 -2.691477	 0.798056
H	 0.330890	 -2.653343	 0.468960
H	 1.974395	 -1.189404	 -0.874166
H	 2.638695	 0.198920	 -0.000196
H	 1.974487	 -1.188655	 0.874727
