%nprocshared=1
%mem=2GB
#HF/6-31G* nosymm scf=tight 

Mol

0 1
H	 2.332609	 0.878551	 -1.051851
C	 2.357710	 0.000000	 -0.417167
C	 1.175432	 0.000000	 0.532082
H	 3.291263	 0.000000	 0.136880
H	 2.332609	 -0.878551	 -1.051851
O	 0.000000	 0.000000	 -0.221444
H	 1.206604	 0.877321	 1.177902
H	 1.206604	 -0.877321	 1.177902
C	 -1.175432	 0.000000	 0.532082
C	 -1.568713	 -1.436988	 0.813596
H	 -1.969256	 0.511685	 -0.011766
H	 -1.022436	 0.541899	 1.465186
H	 -1.731791	 -1.972811	 -0.114630
H	 -2.481737	 -1.474378	 1.399667
H	 -0.783644	 -1.942554	 1.364393
