%nprocshared=1
%mem=2GB
#HF/6-31G* nosymm scf=tight 
prop=(read,field)

Mol

0 1
O	 -0.291588	 1.323876	 -0.000732
C	 -0.449615	 0.146421	 0.000961
C	 -1.783254	 -0.549260	 -0.000296
O	 0.550861	 -0.724511	 0.000672
H	 -1.863498	 -1.185310	 -0.874187
H	 -2.574632	 0.185319	 -0.002793
H	 -1.866374	 -1.182320	 0.875436
C	 1.863989	 -0.193498	 -0.000319
H	 2.028899	 0.409345	 -0.881648
H	 2.526301	 -1.045021	 -0.000003
H	 2.029560	 0.410616	 0.880008

@grid.dat /N
