%nprocshared=1
%mem=2GB
#HF/6-31G* nosymm scf=tight 

Mol

0 1
O	 -2.821601	 1.309235	 -0.001213
C	 -2.668563	 0.129746	 -0.000350
C	 -3.801572	 -0.864014	 -0.000442
O	 -1.481751	 -0.454642	 0.000584
H	 -4.417280	 -0.689587	 -0.874708
H	 -3.443784	 -1.883046	 -0.000565
H	 -4.417179	 -0.689832	 0.873954
C	 -0.334255	 0.388708	 0.000906
C	 0.891947	 -0.504646	 0.000751
H	 -0.365390	 1.025305	 -0.873475
H	 -0.365484	 1.024911	 0.875569
C	 1.621711	 -0.481212	 1.345134
H	 1.561373	 -0.181946	 -0.791823
H	 0.587081	 -1.519390	 -0.239692
C	 2.862449	 -1.375910	 1.365364
H	 1.913324	 0.540286	 1.583020
H	 0.940867	 -0.795787	 2.134170
C	 3.592055	 -1.351426	 2.707728
H	 3.544061	 -1.062710	 0.577718
H	 2.572527	 -2.397513	 1.130113
H	 3.924656	 -0.347346	 2.955145
H	 4.466354	 -1.994507	 2.690903
H	 2.945956	 -1.692492	 3.511618

2 4 8 10 F

16 12 9 13 F

19 15 12 16 F

1 2 4 8 F

