%nprocshared=1
%mem=2GB
#HF/6-31G* nosymm scf=tight 

Mol

0 1
O	 -2.821601	 1.309235	 -0.001213
C	 -2.668563	 0.129746	 -0.000350
C	 -3.801572	 -0.864014	 -0.000442
O	 -1.481751	 -0.454642	 0.000584
H	 -4.417280	 -0.689587	 -0.874708
H	 -3.443784	 -1.883046	 -0.000565
H	 -4.417179	 -0.689832	 0.873954
C	 -0.334255	 0.388708	 0.000906
C	 0.891947	 -0.504646	 0.000751
H	 -0.365390	 1.025305	 -0.873475
H	 -0.365484	 1.024911	 0.875569
C	 2.149042	 0.242905	 -0.447969
H	 0.708997	 -1.351926	 -0.654295
H	 1.034280	 -0.905788	 1.000395
C	 3.397382	 -0.641355	 -0.455598
H	 1.993330	 0.650627	 -1.445266
H	 2.318582	 1.095574	 0.207236
C	 4.652685	 0.105003	 -0.905074
H	 3.229816	 -1.493744	 -1.110144
H	 3.555799	 -1.047789	 0.540788
H	 4.537653	 0.494887	 -1.912433
H	 5.520051	 -0.547599	 -0.900249
H	 4.866279	 0.943962	 -0.248922

2 4 8 10 F

16 12 9 13 F

19 15 12 16 F

1 2 4 8 F

