%nprocshared=24
%mem=2GB
#HF/6-31G* nosymm scf=tight 

Mol

0 1
H	 -2.455504	 -1.062989	 3.255514
C	 -2.425350	 -0.963885	 2.187839
C	 -1.271134	 -0.975404	 1.562018
H	 -3.351856	 -0.856911	 1.655811
O	 -0.813082	 -2.079895	 0.916148
H	 -0.631691	 -0.112159	 1.506186
C	 0.486195	 -2.066580	 0.432878
C	 0.647107	 -1.092452	 -0.712319
H	 0.809554	 -3.044016	 0.092654
H	 1.132907	 -1.743864	 1.235439
F	 0.062858	 0.055179	 -0.400226
F	 1.920426	 -0.838905	 -0.965699
F	 0.097658	 -1.538912	 -1.822801

11 8 7 9 F

3 5 7 9 F

6 3 5 7 F

