%nprocshared=1
%mem=2GB
#HF/6-31G* nosymm scf=tight 

Mol

0 1
O	 -0.682937	 1.318834	 -0.186099
C	 -0.860635	 0.152188	 -0.042321
C	 -2.173363	 -0.477127	 0.338347
O	 0.083258	 -0.765189	 -0.202595
H	 -2.477673	 -1.180929	 -0.427595
H	 -2.923125	 0.290956	 0.455536
H	 -2.058825	 -1.029004	 1.264191
C	 1.432622	 -0.330504	 -0.354467
C	 1.629465	 0.429979	 -1.652760
H	 2.089378	 -1.185198	 -0.296949
H	 1.609268	 0.308109	 0.499037
H	 2.644318	 0.812297	 -1.704101
H	 1.465707	 -0.215387	 -2.506607
H	 0.945643	 1.269917	 -1.710272

10 8 4 2 F

