%nprocshared=1
%mem=2GB
#HF/6-31G* nosymm scf=tight 

Mol

0 1
O	 -2.821601	 1.309235	 -0.001213
C	 -2.668563	 0.129746	 -0.000350
C	 -3.801572	 -0.864014	 -0.000442
O	 -1.481751	 -0.454642	 0.000584
H	 -4.417280	 -0.689587	 -0.874708
H	 -3.443784	 -1.883046	 -0.000565
H	 -4.417179	 -0.689832	 0.873954
C	 -0.334255	 0.388708	 0.000906
C	 0.891947	 -0.504646	 0.000751
H	 -0.365390	 1.025305	 -0.873475
H	 -0.365484	 1.024911	 0.875569
C	 1.910831	 -0.083953	 -1.060081
H	 0.578710	 -1.530840	 -0.170272
H	 1.347575	 -0.475763	 0.986667
C	 3.155361	 -0.973441	 -1.076902
H	 1.442716	 -0.105032	 -2.042685
H	 2.210984	 0.948076	 -0.887151
C	 4.172390	 -0.554028	 -2.137378
H	 2.857267	 -2.005074	 -1.249956
H	 3.625705	 -0.951727	 -0.096404
H	 3.741241	 -0.598041	 -3.133465
H	 5.042528	 -1.202826	 -2.124857
H	 4.515704	 0.463068	 -1.971059

2 4 8 10 F

16 12 9 13 F

19 15 12 16 F

1 2 4 8 F

