%nprocshared=1
%mem=2GB
#HF/6-31G* nosymm scf=tight 

Mol

0 1
H	 -3.424878	 5.908340	 0.727405
C	 -3.998371	 4.995839	 0.522299
C	 -4.116588	 4.042758	 1.684311
O	 -4.471475	 4.816800	 -0.552815
C	 -3.836806	 2.587787	 1.283017
H	 -3.447243	 4.375514	 2.469143
H	 -5.136223	 4.120960	 2.059655
C	 -4.902224	 1.994114	 0.357958
H	 -2.869114	 2.546507	 0.791943
H	 -3.747304	 1.976540	 2.179746
C	 -6.253274	 1.803461	 1.050150
H	 -4.550479	 1.037129	 -0.021915
H	 -5.032735	 2.633698	 -0.512926
C	 -7.144331	 3.045428	 0.963640
H	 -6.759475	 0.950440	 0.605350
H	 -6.089580	 1.551128	 2.097010
C	 -8.476090	 2.930578	 1.714174
H	 -7.340708	 3.275648	 -0.082366
H	 -6.595566	 3.895780	 1.362978
C	 -9.441535	 1.892099	 1.140506
H	 -8.962502	 3.902772	 1.700334
H	 -8.281521	 2.704290	 2.760528
H	 -9.641833	 2.084110	 0.089658
H	 -9.050397	 0.883621	 1.223924
H	 -10.390864	 1.916855	 1.666962

6 3 5 8 F

6 3 2 4 F

3 5 8 12 F

8 11 14 18 F

20 17 14 18 F

