%nprocshared=1
%mem=2GB
#HF/6-31G* nosymm scf=tight 

Mol

0 1
H	 -1.634041	 2.552021	 -0.052973
C	 -0.611449	 2.192959	 -0.054828
C	 -0.603454	 0.661669	 0.000000
H	 -0.099279	 2.614542	 0.801554
H	 -0.124577	 2.551566	 -0.953604
C	 0.763625	 0.112519	 0.000000
H	 -1.104393	 0.307115	 0.893264
H	 -1.129530	 0.244538	 -0.850773
N	 1.813038	 -0.320305	 0.000000
