%nprocshared=1
%mem=2GB
#HF/6-31G* nosymm scf=tight 

Mol

0 1
H	 -2.595187	 -1.515114	 0.302164
C	 -3.186678	 -0.627196	 0.557825
C	 -4.461497	 -0.462258	 -0.229730
O	 -2.808123	 0.120340	 1.400224
C	 -4.650409	 0.969183	 -0.750828
H	 -4.459795	 -1.183854	 -1.038437
H	 -5.284826	 -0.711644	 0.438545
C	 -4.902224	 1.994114	 0.357958
H	 -3.762680	 1.252021	 -1.308702
H	 -5.474109	 0.988691	 -1.462794
C	 -6.253274	 1.803461	 1.050150
H	 -4.848476	 2.995502	 -0.064156
H	 -4.108111	 1.937611	 1.100070
C	 -7.144331	 3.045428	 0.963640
H	 -6.759475	 0.950440	 0.605350
H	 -6.089580	 1.551128	 2.097010
C	 -8.476090	 2.930578	 1.714174
H	 -7.340708	 3.275648	 -0.082366
H	 -6.595566	 3.895780	 1.362978
C	 -9.441535	 1.892099	 1.140506
H	 -8.962502	 3.902772	 1.700334
H	 -8.281521	 2.704290	 2.760528
H	 -9.641833	 2.084110	 0.089658
H	 -9.050397	 0.883621	 1.223924
H	 -10.390864	 1.916855	 1.666962

6 3 5 8 F

6 3 2 4 F

3 5 8 12 F

8 11 14 18 F

20 17 14 18 F

