1246
  -OEChem-06301110513D

 51 56  0     1  0  0  0  0  0999 V2000
    2.3986    0.2650   -1.4195 O   0  0  0  0  0  0  0  0  0  0  0  0
   -1.1943    2.8350   -0.1816 O   0  0  0  0  0  0  0  0  0  0  0  0
    3.5530    2.3049   -0.0458 O   0  0  0  0  0  0  0  0  0  0  0  0
    3.8018   -2.1874   -0.7019 O   0  0  0  0  0  0  0  0  0  0  0  0
   -2.4786    0.0941   -0.0144 N   0  0  2  0  0  0  0  0  0  0  0  0
    0.2119    0.9011   -0.6044 C   0  0  2  0  0  0  0  0  0  0  0  0
   -0.5511    1.7167    0.4455 C   0  0  2  0  0  0  0  0  0  0  0  0
   -1.6412    0.7462    1.0288 C   0  0  2  0  0  0  0  0  0  0  0  0
    1.5682    1.4255   -1.1088 C   0  0  1  0  0  0  0  0  0  0  0  0
   -0.7306    0.5043   -1.7718 C   0  0  0  0  0  0  0  0  0  0  0  0
    0.7435   -0.3431    0.0367 C   0  0  0  0  0  0  0  0  0  0  0  0
    0.3912    2.3266    1.5028 C   0  0  0  0  0  0  0  0  0  0  0  0
   -0.9989   -0.4422    1.8135 C   0  0  0  0  0  0  0  0  0  0  0  0
   -2.2227    0.5126   -1.3902 C   0  0  0  0  0  0  0  0  0  0  0  0
    0.1893   -1.0361    1.0996 C   0  0  0  0  0  0  0  0  0  0  0  0
   -3.9018    0.1597    0.3073 C   0  0  0  0  0  0  0  0  0  0  0  0
    1.4983    3.1456    0.8401 C   0  0  0  0  0  0  0  0  0  0  0  0
   -4.7064   -0.7031   -0.6099 C   0  0  0  0  0  0  0  0  0  0  0  0
    2.3223    2.2744   -0.0808 C   0  0  0  0  0  0  0  0  0  0  0  0
    1.9571   -0.6855   -0.5283 C   0  0  0  0  0  0  0  0  0  0  0  0
   -4.4432   -2.1747   -0.6330 C   0  0  0  0  0  0  0  0  0  0  0  0
   -5.7074   -1.6454   -0.0219 C   0  0  0  0  0  0  0  0  0  0  0  0
    0.8552   -2.1881    1.5198 C   0  0  0  0  0  0  0  0  0  0  0  0
    2.6223   -1.8263   -0.1404 C   0  0  0  0  0  0  0  0  0  0  0  0
    2.0510   -2.5898    0.8873 C   0  0  0  0  0  0  0  0  0  0  0  0
    4.4124   -3.3902   -0.2286 C   0  0  0  0  0  0  0  0  0  0  0  0
   -2.2790    1.3250    1.7102 H   0  0  0  0  0  0  0  0  0  0  0  0
    1.4639    2.0352   -2.0135 H   0  0  0  0  0  0  0  0  0  0  0  0
   -0.4701   -0.4857   -2.1701 H   0  0  0  0  0  0  0  0  0  0  0  0
   -0.6079    1.2096   -2.6040 H   0  0  0  0  0  0  0  0  0  0  0  0
    0.8513    1.5595    2.1341 H   0  0  0  0  0  0  0  0  0  0  0  0
   -0.1794    2.9889    2.1656 H   0  0  0  0  0  0  0  0  0  0  0  0
   -1.7417   -1.2255    2.0124 H   0  0  0  0  0  0  0  0  0  0  0  0
   -0.6616   -0.0760    2.7912 H   0  0  0  0  0  0  0  0  0  0  0  0
   -2.6423    1.5092   -1.5779 H   0  0  0  0  0  0  0  0  0  0  0  0
   -2.7199   -0.1554   -2.1034 H   0  0  0  0  0  0  0  0  0  0  0  0
   -4.0533   -0.1716    1.3428 H   0  0  0  0  0  0  0  0  0  0  0  0
   -4.2707    1.1920    0.2522 H   0  0  0  0  0  0  0  0  0  0  0  0
    2.1580    3.5498    1.6163 H   0  0  0  0  0  0  0  0  0  0  0  0
    1.1082    3.9931    0.2686 H   0  0  0  0  0  0  0  0  0  0  0  0
   -4.9765   -0.2116   -1.5366 H   0  0  0  0  0  0  0  0  0  0  0  0
   -0.5847    3.2194   -0.8333 H   0  0  0  0  0  0  0  0  0  0  0  0
   -3.7012   -2.5906    0.0378 H   0  0  0  0  0  0  0  0  0  0  0  0
   -4.5179   -2.6847   -1.5857 H   0  0  0  0  0  0  0  0  0  0  0  0
   -6.6320   -1.8024   -0.5643 H   0  0  0  0  0  0  0  0  0  0  0  0
   -5.8092   -1.7069    1.0544 H   0  0  0  0  0  0  0  0  0  0  0  0
    0.4699   -2.7717    2.3518 H   0  0  0  0  0  0  0  0  0  0  0  0
    2.5054   -3.4980    1.2717 H   0  0  0  0  0  0  0  0  0  0  0  0
    3.7783   -4.2625   -0.4189 H   0  0  0  0  0  0  0  0  0  0  0  0
    4.6936   -3.3064    0.8265 H   0  0  0  0  0  0  0  0  0  0  0  0
    5.3360   -3.5310   -0.7992 H   0  0  0  0  0  0  0  0  0  0  0  0
  1  9  1  0  0  0  0
  1 20  1  0  0  0  0
  2  7  1  0  0  0  0
  2 42  1  0  0  0  0
  3 19  2  0  0  0  0
  4 24  1  0  0  0  0
  4 26  1  0  0  0  0
  5  8  1  0  0  0  0
  5 14  1  0  0  0  0
  5 16  1  0  0  0  0
  6  7  1  0  0  0  0
  6  9  1  0  0  0  0
  6 10  1  0  0  0  0
  6 11  1  0  0  0  0
  7  8  1  0  0  0  0
  7 12  1  0  0  0  0
  8 13  1  0  0  0  0
  8 27  1  0  0  0  0
  9 19  1  0  0  0  0
  9 28  1  0  0  0  0
 10 14  1  0  0  0  0
 10 29  1  0  0  0  0
 10 30  1  0  0  0  0
 11 15  2  0  0  0  0
 11 20  1  0  0  0  0
 12 17  1  0  0  0  0
 12 31  1  0  0  0  0
 12 32  1  0  0  0  0
 13 15  1  0  0  0  0
 13 33  1  0  0  0  0
 13 34  1  0  0  0  0
 14 35  1  0  0  0  0
 14 36  1  0  0  0  0
 15 23  1  0  0  0  0
 16 18  1  0  0  0  0
 16 37  1  0  0  0  0
 16 38  1  0  0  0  0
 17 19  1  0  0  0  0
 17 39  1  0  0  0  0
 17 40  1  0  0  0  0
 18 21  1  0  0  0  0
 18 22  1  0  0  0  0
 18 41  1  0  0  0  0
 20 24  2  0  0  0  0
 21 22  1  0  0  0  0
 21 43  1  0  0  0  0
 21 44  1  0  0  0  0
 22 45  1  0  0  0  0
 22 46  1  0  0  0  0
 23 25  2  0  0  0  0
 23 47  1  0  0  0  0
 24 25  1  0  0  0  0
 25 48  1  0  0  0  0
 26 49  1  0  0  0  0
 26 50  1  0  0  0  0
 26 51  1  0  0  0  0
M  END
> <PUBCHEM_COMPOUND_CID>
1246

> <PUBCHEM_CONFORMER_RMSD>
0.8

> <PUBCHEM_CONFORMER_DIVERSEORDER>
1
19
10
8
13
7
16
2
17
15
4
6
14
11
12
5
3
18
9

> <PUBCHEM_MMFF94_PARTIAL_CHARGES>
32
1 -0.36
11 -0.14
13 0.14
14 0.27
15 -0.14
16 0.37
17 0.06
18 -0.19
19 0.45
2 -0.68
20 0.08
21 -0.2
22 -0.2
23 -0.15
24 0.08
25 -0.15
26 0.28
3 -0.57
4 -0.36
41 0.1
42 0.4
43 0.1
44 0.1
45 0.1
46 0.1
47 0.15
48 0.15
5 -0.81
6 0.14
7 0.28
8 0.27
9 0.34

> <PUBCHEM_EFFECTIVE_ROTOR_COUNT>
5

> <PUBCHEM_PHARMACOPHORE_FEATURES>
11
1 1 acceptor
1 2 acceptor
1 2 donor
1 3 acceptor
1 4 acceptor
1 5 cation
5 1 6 9 11 20 rings
6 11 15 20 23 24 25 rings
6 5 6 7 8 10 14 rings
6 6 7 8 11 13 15 rings
6 6 7 9 12 17 19 rings

> <PUBCHEM_HEAVY_ATOM_COUNT>
26

> <PUBCHEM_ATOM_DEF_STEREO_COUNT>
0

> <PUBCHEM_ATOM_UDEF_STEREO_COUNT>
4

> <PUBCHEM_BOND_DEF_STEREO_COUNT>
0

> <PUBCHEM_BOND_UDEF_STEREO_COUNT>
0

> <PUBCHEM_ISOTOPIC_ATOM_COUNT>
0

> <PUBCHEM_COMPONENT_COUNT>
1

> <PUBCHEM_CACTVS_TAUTO_COUNT>
3

> <PUBCHEM_CONFORMER_ID>
000004DE00000001

> <PUBCHEM_MMFF94_ENERGY>
107.452

> <PUBCHEM_FEATURE_SELFOVERLAP>
57.667

> <PUBCHEM_SHAPE_FINGERPRINT>
10863032 1 18262795164608550397
10948715 1 18049446937414182337
1100329 8 18121214552450852721
11578080 2 18129959969423058517
12107183 9 18116984689117750217
12293681 25 17916289546835162859
12553582 1 18267593583887471771
13009979 54 17604135034407612035
13140716 1 17755877315697353048
13533116 47 18336272228865306303
13911987 19 17910937059543220380
14787075 74 18412821400510428426
16945 1 18057295367493317936
17980427 26 17681010499494233357
1813 80 17967812807440784718
200 152 18200304571235830690
20567600 347 18054802680170094059
20600515 1 17606392417589487928
20691752 17 16773521053010971409
21421861 104 18412830200587487433
22112679 90 18043516425001940937
22393880 68 17988935495890344367
229495 10 16266014179552489505
23379529 103 18335414699220334343
23419403 2 17341017482491199920
23559900 14 18337966678634508041
238 59 18270672057140771995
2748010 2 17772725226769069306
3286 77 18412824706996969263
3323516 105 18340770326079836063
404807 78 16183597575427310023
4340502 62 18195247715828326931
46194498 28 17202484395371311863
463206 1 18198617920610501315
7471813 234 18336827593019941130
7970288 3 18263362658438048103

> <PUBCHEM_SHAPE_MULTIPOLES>
506.61
7.67
3.7
1.47
4.76
6.6
-1.06
1.89
-2.89
-4.33
-4.77
-0.23
16.12
15.65

> <PUBCHEM_SHAPE_SELFOVERLAP>
1137.442

> <PUBCHEM_SHAPE_VOLUME>
264.6

> <PUBCHEM_COORDINATE_TYPE>
2
5
255

$$$$

