%nprocshared=1
%mem=2GB
#HF/6-31G* nosymm scf=tight 

Mol

0 1
H	 -0.583118	 -2.408377	 0.686118
N	 -0.562238	 -1.407109	 0.685079
C	 -1.595791	 -0.871577	 -0.183297
H	 0.337532	 -1.127520	 0.345441
C	 -1.252318	 -1.153910	 -1.630864
H	 -2.590003	 -1.272518	 0.018670
H	 -1.643756	 0.203986	 -0.043136
O	 -0.088814	 -0.446451	 -1.951562
H	 -1.093847	 -2.221900	 -1.778929
H	 -2.074019	 -0.838302	 -2.269952
C	 0.295968	 -0.548357	 -3.285402
H	 1.077210	 -1.293847	 -3.345427
H	 -0.534823	 -0.858547	 -3.916710
H	 0.680852	 0.397273	 -3.661511

8 5 3 6 F

6 3 2 4 F

11 8 5 3 F

