%nprocshared=1
%mem=2GB
#HF/6-31G* nosymm scf=tight 

Mol

0 1
H	 -1.836216	 1.387520	 -0.000064
C	 -1.301823	 0.443321	 -0.000031
O	 -0.003969	 0.658512	 0.000451
O	 -1.829879	 -0.616434	 -0.000857
C	 0.463789	 1.849229	 -0.632464
C	 0.230756	 1.694397	 -2.119758
H	 1.512255	 1.978056	 -0.401294
H	 -0.074802	 2.694711	 -0.227031
H	 0.771262	 0.838242	 -2.506907
H	 0.574559	 2.582016	 -2.640493
H	 -0.823448	 1.558352	 -2.331970

7 5 3 2 F

