%nprocshared=1
%mem=2GB
#HF/6-31G* nosymm scf=tight 

Mol

0 1
H	 -2.786295	 0.397684	 0.042023
C	 -2.331321	 0.440307	 -0.940081
C	 -1.063937	 -0.404528	 -0.992529
H	 -2.114542	 1.479591	 -1.154969
H	 -3.052988	 0.083502	 -1.667517
C	 -0.000005	 0.033229	 -0.000001
H	 -0.624227	 -0.379281	 -1.987724
H	 -1.290082	 -1.451754	 -0.801287
C	 1.290528	 -0.768786	 0.000276
O	 -0.168490	 0.955373	 0.737866
C	 2.545731	 0.095645	 -0.000061
H	 1.275672	 -1.427874	 -0.865626
H	 1.275566	 -1.427086	 0.866768
H	 2.577157	 0.734767	 -0.874036
H	 3.433520	 -0.528139	 0.000137
H	 2.577172	 0.735117	 0.873581
