%nprocshared=1
%mem=2GB
#HF/6-31G* nosymm scf=tight 

Mol

0 1
O	 -1.487788	 1.240889	 -0.102860
C	 -1.083277	 0.139568	 0.115197
C	 0.323299	 -0.082943	 0.642902
C	 -1.933017	 -1.084621	 -0.143902
C	 1.355627	 -0.005344	 -0.493127
H	 0.396251	 -1.044647	 1.143147
H	 0.528637	 0.693580	 1.371677
C	 1.643201	 -1.372140	 -1.111526
H	 1.000691	 0.672785	 -1.266065
H	 2.271389	 0.422740	 -0.099092
H	 2.378262	 -1.291704	 -1.905822
H	 0.743951	 -1.810347	 -1.534788
H	 2.031184	 -2.062746	 -0.368843
H	 -1.393885	 -1.806447	 -0.750509
H	 -2.850323	 -0.799888	 -0.640100
H	 -2.169004	 -1.571158	 0.798858

4 2 3 5 F

