%nprocshared=1
%mem=2GB
#HF/6-31G* nosymm scf=tight 

Mol

0 1
H	 -2.440123	 -1.779047	 0.386263
C	 -1.667057	 -1.054583	 0.222170
C	 -1.967101	 0.332530	 0.013809
C	 -0.378844	 -1.420145	 0.205187
H	 -2.992433	 0.657610	 0.021745
C	 -0.983084	 1.220153	 -0.189412
H	 -0.070690	 -2.437813	 0.352826
N	 0.640212	 -0.532897	 -0.000111
H	 -1.169413	 2.264327	 -0.348590
C	 0.418632	 0.822110	 -0.207799
C	 2.010177	 -1.032049	 0.000042
O	 1.331982	 1.588848	 -0.386996
H	 2.187698	 -1.635381	 -0.882279
H	 2.677579	 -0.189247	 -0.001871
H	 2.188882	 -1.632203	 0.884288
