%nprocshared=1
%mem=2GB
#HF/6-31G* nosymm scf=tight 

Mol

0 1
O	 -2.042549	 -1.228399	 -0.269030
C	 -1.653912	 -0.146171	 0.050137
C	 -0.332303	 0.024011	 0.778412
C	 -2.438579	 1.106236	 -0.272369
C	 -0.437700	 1.109646	 1.861076
H	 -0.020041	 -0.915456	 1.225933
H	 0.412317	 0.313931	 0.045329
C	 -0.618868	 2.510476	 1.274659
H	 0.454233	 1.094915	 2.485033
H	 -1.275223	 0.871338	 2.509848
C	 -1.701032	 2.564827	 0.197081
H	 -0.867041	 3.207161	 2.072448
H	 0.326273	 2.847897	 0.855824
H	 -2.666533	 2.265023	 0.594546
H	 -1.463804	 1.901988	 -0.629847
H	 -1.805326	 3.568568	 -0.202483
H	 -3.277823	 0.863061	 -0.908988
H	 -1.806773	 1.843019	 -0.759671
H	 -2.802853	 1.554979	 0.648059

11 8 5 9 F

9 5 3 2 F

