%nprocshared=1
%mem=2GB
#HF/6-31G* nosymm scf=tight 

Mol

0 1
O	 1.825465	 1.324323	 -0.951462
C	 0.788116	 1.716284	 -1.379704
C	 -0.516134	 0.957269	 -1.353318
O	 0.640172	 2.906476	 -1.947763
C	 -0.823008	 0.326187	 0.001381
H	 -1.299814	 1.647936	 -1.652547
H	 -0.470175	 0.205508	 -2.136556
C	 -2.170235	 0.783233	 0.562765
H	 -0.029347	 0.573817	 0.699213
H	 -0.811718	 -0.754797	 -0.096875
C	 -2.143885	 2.221195	 1.083755
H	 -2.934292	 0.695770	 -0.208315
H	 -2.473946	 0.116177	 1.368169
C	 -1.641612	 3.223008	 0.044840
H	 -1.513121	 2.271211	 1.968502
H	 -3.143378	 2.504916	 1.405707
H	 -0.629842	 2.985858	 -0.271855
H	 -1.634809	 4.232621	 0.443694
H	 -2.272853	 3.221077	 -0.839378
C	 1.792514	 3.724689	 -2.034891
H	 2.180449	 3.940881	 -1.049855
H	 1.472688	 4.634305	 -2.518819
H	 2.560106	 3.239076	 -2.620117

15 11 8 12 F

9 5 8 12 F

1 2 3 6 F

1 2 4 20 F

