%nprocshared=1
%mem=2GB
#HF/6-31G* nosymm scf=tight 

Mol

0 1
H	 -2.656367	 0.357721	 0.729329
O	 -1.710398	 0.355991	 0.714738
C	 -1.249289	 1.309017	 -0.208935
C	 -1.426247	 2.745523	 0.270505
H	 -0.197037	 1.097597	 -0.349445
H	 -1.737803	 1.172718	 -1.173070
C	 -0.947440	 2.986571	 1.704209
H	 -0.891044	 3.404114	 -0.408599
H	 -2.481857	 3.000873	 0.194013
C	 -1.818173	 2.277770	 2.745479
H	 -0.940399	 4.054556	 1.903518
H	 0.081802	 2.641835	 1.805006
C	 -2.138675	 0.812748	 2.427157
H	 -1.332820	 2.336834	 3.717997
H	 -2.755272	 2.822154	 2.841352
C	 -3.034785	 0.600176	 1.203932
H	 -1.200940	 0.285087	 2.265779
H	 -2.600109	 0.348503	 3.297441
C	 -4.465221	 1.099239	 1.418936
H	 -3.058697	 -0.460122	 0.956328
H	 -2.612982	 1.105688	 0.338576
C	 -5.411106	 0.710962	 0.283063
H	 -4.847259	 0.703375	 2.357459
H	 -4.456195	 2.181939	 1.526468
H	 -5.467273	 -0.368187	 0.171231
H	 -6.416738	 1.077069	 0.465559
H	 -5.076338	 1.123259	 -0.664726

14 10 7 4 F

14 10 13 16 F

10 7 4 8 F

8 4 3 2 F

10 13 16 20 F

4 3 2 1 F

