%nprocshared=1
%mem=2GB
#HF/6-31G* nosymm scf=tight 

Mol

0 1
H	 -3.489899	 1.228218	 -1.029938
O	 -3.452007	 0.283848	 -0.965577
C	 -3.181085	 -0.079926	 0.364119
C	 -1.765924	 0.277073	 0.805136
H	 -3.327791	 -1.152017	 0.410903
H	 -3.905698	 0.375695	 1.036898
C	 -0.799536	 -0.907672	 0.773685
H	 -1.387215	 1.077205	 0.168480
H	 -1.814746	 0.688623	 1.811846
C	 -1.127764	 -1.978015	 1.816667
H	 0.212837	 -0.546103	 0.925601
H	 -0.818275	 -1.353849	 -0.219274
C	 -2.609653	 -2.362731	 1.825833
H	 -0.516891	 -2.857067	 1.625562
H	 -0.845071	 -1.618892	 2.805464
C	 -3.557745	 -1.252903	 2.294407
H	 -2.749088	 -3.241728	 2.453222
H	 -2.897914	 -2.660497	 0.819823
C	 -5.040306	 -1.535357	 2.044132
H	 -3.288018	 -0.331530	 1.783909
H	 -3.399291	 -1.068668	 3.355139
H	 -5.226964	 -1.735893	 0.992427
H	 -5.648764	 -0.682739	 2.329891
H	 -5.392707	 -2.390322	 2.611594

20 16 13 17 F

17 13 10 7 F

13 10 7 11 F

11 7 4 3 F

1 2 3 5 F

