%nprocshared=24
%mem=2GB
#HF/6-31G* nosymm scf=tight 

Mol

0 1
H	 -2.274702	 -0.658939	 3.313616
C	 -2.272646	 -0.724379	 2.242873
C	 -1.133358	 -0.748883	 1.591020
H	 -3.215473	 -0.767698	 1.729294
O	 -1.081000	 -0.797000	 0.234000
H	 -0.179993	 -0.713027	 2.087042
C	 0.151000	 -0.997000	 -0.369000
C	 1.143000	 0.077000	 0.017000
H	 0.082000	 -1.019000	 -1.451000
H	 0.537000	 -1.944000	 -0.023000
F	 0.942633	 0.429544	 1.278564
F	 2.391066	 -0.347800	 -0.086844
F	 1.021272	 1.154467	 -0.729697

11 8 7 9 F

6 3 2 1 F

6 3 5 7 F

