%nprocshared=1
%mem=2GB
#HF/6-31G* nosymm scf=tight opt=ModRedundant

Mol

0 1
H	 -2.117000	 -2.267000	 0.000000
O	 -2.427000	 -1.371000	 -0.000000
C	 -1.399000	 -0.499000	 -0.000000
C	 -1.712000	 0.856000	 -0.000000
C	 -0.078000	 -0.904000	 -0.000000
H	 -2.746000	 1.147000	 0.000000
C	 -0.702000	 1.796000	 -0.000000
H	 0.178000	 -1.948000	 -0.000000
C	 0.930000	 0.058000	 0.000000
H	 -0.952000	 2.841000	 0.000000
C	 0.630000	 1.409000	 0.000000
C	 2.310000	 -0.374000	 0.000000
H	 1.418000	 2.139000	 0.000000
N	 3.394000	 -0.715000	 0.000000
