%nprocshared=1
%mem=2GB
#HF/6-31G* nosymm scf=tight 

Mol

0 1
H	 -2.300793	 0.892180	 1.305470
C	 -1.301553	 0.474983	 1.351194
C	 -0.603454	 0.661669	 0.000000
H	 -1.380538	 -0.575081	 1.605298
H	 -0.757111	 0.976907	 2.141824
C	 0.763625	 0.112519	 0.000000
H	 -1.159291	 0.170451	 -0.790138
H	 -0.539814	 1.712604	 -0.257013
N	 1.813038	 -0.320305	 0.000000
