%nprocshared=1
%mem=2GB
#HF/6-31G* nosymm scf=tight 

Mol

0 1
H	 0.520913	 -3.355335	 -0.750069
O	 0.895837	 -2.618051	 -0.278264
C	 0.102382	 -1.563045	 -0.462125
C	 0.624473	 -0.343591	 0.253101
O	 -0.886133	 -1.623171	 -1.118051
C	 -0.265902	 0.883932	 0.072916
H	 0.740303	 -0.614115	 1.297502
H	 1.628992	 -0.158063	 -0.118751
C	 -1.728698	 0.646073	 0.462102
H	 -0.209144	 1.219470	 -0.958188
H	 0.135059	 1.692851	 0.673903
C	 -2.233402	 1.498228	 1.630034
H	 -1.841267	 -0.403206	 0.724978
H	 -2.366737	 0.809420	 -0.405297
C	 -1.884321	 2.977875	 1.471094
H	 -3.312871	 1.388929	 1.712762
H	 -1.816334	 1.136731	 2.566387
H	 -2.250387	 3.560554	 2.310614
H	 -2.322716	 3.388936	 0.566291
H	 -0.809255	 3.122635	 1.411815

16 12 9 6 F

7 4 6 10 F

5 3 4 7 F

1 2 3 5 F

