%nprocshared=1
%mem=2GB
#HF/6-31G* nosymm scf=tight 

Mol

0 1
O	 3.225979	 0.970355	 -0.599647
C	 2.701189	 0.057885	 -0.047330
C	 1.245376	 -0.013843	 0.345420
O	 3.347903	 -1.046386	 0.304773
C	 0.455112	 1.231400	 -0.050772
H	 0.838542	 -0.913825	 -0.103701
H	 1.208210	 -0.175333	 1.419774
C	 -0.998893	 1.219485	 0.433193
H	 0.482531	 1.345121	 -1.130325
H	 0.957290	 2.103070	 0.354729
C	 -1.883438	 0.145884	 -0.207175
H	 -1.431207	 2.195402	 0.224832
H	 -1.019646	 1.105716	 1.516076
C	 -2.631746	 -0.701283	 0.824010
H	 -2.603087	 0.623975	 -0.870013
H	 -1.282458	 -0.511184	 -0.831720
C	 -1.712579	 -1.604396	 1.648419
H	 -3.374333	 -1.313920	 0.315606
H	 -3.185832	 -0.046146	 1.494446
C	 -0.494501	 -0.868286	 2.205311
H	 -2.277852	 -2.039158	 2.470059
H	 -1.379789	 -2.437654	 1.033024
H	 0.137351	 -1.534513	 2.784543
H	 -0.793820	 -0.049641	 2.853713
H	 0.110750	 -0.450728	 1.405567
C	 4.728119	 -1.109107	 -0.004993
H	 4.882018	 -1.033965	 -1.071845
H	 5.068212	 -2.067527	 0.355250
H	 5.265056	 -0.311663	 0.488280

21 17 14 11 F

17 14 11 15 F

6 3 5 9 F

11 8 5 9 F

2 4 26 27 F

1 2 4 26 F

6 3 2 1 F

