%nprocshared=1
%mem=2GB
#HF/6-31G* nosymm scf=tight opt=ModRedundant

Mol

0 1
H	 -3.322000	 0.549000	 0.000000
C	 -2.271000	 0.323000	 0.000000
C	 -1.834000	 -0.997000	 0.000000
C	 -1.335000	 1.337000	 -0.000000
H	 -2.549000	 -1.801000	 0.000000
C	 -0.487000	 -1.291000	 -0.000000
H	 -1.655000	 2.364000	 -0.000000
C	 0.027000	 1.057000	 -0.000000
H	 -0.136000	 -2.306000	 0.000000
C	 0.452000	 -0.262000	 -0.000000
H	 0.730000	 1.867000	 -0.000000
O	 1.745000	 -0.650000	 -0.000000
C	 2.758000	 0.314000	 0.000000
H	 2.711000	 0.940000	 -0.885000
H	 3.692000	 -0.229000	 0.000000
H	 2.711000	 0.940000	 0.885000
