%nprocshared=1
%mem=2GB
#HF/6-31G* nosymm scf=tight 

Mol

0 1
H	 -3.161837	 0.500524	 -0.000234
C	 -2.367097	 -0.232926	 -0.000000
O	 -1.158440	 0.455814	 -0.000122
H	 -2.468853	 -0.861886	 -0.882833
H	 -2.468942	 -0.861421	 0.883154
C	 -1.058687	 1.440634	 0.983775
C	 -1.183033	 0.784930	 2.348052
H	 -1.843202	 2.186512	 0.849233
H	 -0.103388	 1.960397	 0.899155
C	 -2.612398	 0.340147	 2.654588
H	 -0.509818	 -0.066057	 2.383606
H	 -0.839322	 1.487977	 3.100571
H	 -2.967358	 -0.383312	 1.925868
H	 -2.672101	 -0.123559	 3.633495
H	 -3.299454	 1.181756	 2.647237

6 3 2 4 F

11 7 6 8 F

