%nprocshared=1
%mem=2GB
#HF/6-31G* nosymm scf=tight 

Mol

0 1
H	 -2.628602	 0.651685	 0.778457
C	 -2.540999	 0.103183	 -0.151499
C	 -1.285511	 -0.760778	 -0.160380
H	 -2.520151	 0.826989	 -0.957076
H	 -3.425079	 -0.514753	 -0.269117
C	 -0.000005	 0.033229	 -0.000001
H	 -1.214799	 -1.329267	 -1.085699
H	 -1.322307	 -1.503110	 0.634596
C	 1.290528	 -0.768786	 0.000276
O	 -0.003745	 1.220253	 0.118931
C	 2.545731	 0.095645	 -0.000061
H	 1.275672	 -1.427874	 -0.865626
H	 1.275566	 -1.427086	 0.866768
H	 2.577157	 0.734767	 -0.874036
H	 3.433520	 -0.528139	 0.000137
H	 2.577172	 0.735117	 0.873581
