%nprocshared=1
%mem=2GB
#HF/6-31G* nosymm scf=tight 

Mol

0 1
H	 2.182833	 1.023805	 -2.298034
O	 1.345396	 1.183752	 -1.887174
C	 1.392388	 0.775851	 -0.543085
C	 0.031547	 1.023609	 0.088541
H	 2.147803	 1.340855	 0.000061
H	 1.662311	 -0.275470	 -0.472600
C	 -1.134819	 0.293262	 -0.585751
H	 -0.159434	 2.092811	 0.063631
H	 0.088952	 0.737604	 1.137409
C	 -1.917817	 -0.639439	 0.339494
H	 -0.758119	 -0.268455	 -1.433105
H	 -1.813832	 1.041889	 -0.986690
H	 -2.777680	 -1.057197	 -0.174994
H	 -1.310268	 -1.471279	 0.680599
H	 -2.283753	 -0.111424	 1.216626

2 3 4 8 F

1 2 3 4 F

