%nprocshared=1
%mem=2GB
#HF/6-31G* nosymm scf=tight 

Mol

0 1
H	 -1.836216	 1.387520	 -0.000064
C	 -1.301823	 0.443321	 -0.000031
O	 -0.003969	 0.658512	 0.000451
O	 -1.829879	 -0.616434	 -0.000857
C	 0.850537	 -0.484732	 0.000380
C	 1.493857	 -0.570752	 1.367515
H	 1.586501	 -0.369772	 -0.783495
H	 0.259244	 -1.362447	 -0.221622
H	 2.075285	 0.320045	 1.575975
H	 2.154759	 -1.430201	 1.409819
H	 0.741723	 -0.677437	 2.140691

5 3 2 4 F

