%nprocshared=1
%mem=2GB
#HF/6-31G* nosymm scf=tight 

Mol

0 1
H	 -0.824718	 -0.098448	 -0.790535
N	 -0.626943	 -0.667432	 -0.000092
C	 -1.370341	 -1.896339	 0.160732
C	 0.325755	 -0.252874	 0.869779
H	 -2.194115	 -1.946978	 -0.543426
H	 -1.764905	 -1.922667	 1.163405
H	 -0.731034	 -2.760014	 0.011117
C	 1.674978	 -0.919497	 0.690344
O	 0.127974	 0.574320	 1.716447
H	 2.068026	 -0.726742	 -0.302990
H	 2.359261	 -0.526889	 1.427442
H	 1.590945	 -1.994555	 0.814939

4 2 3 5 F

