%nprocshared=1
%mem=2GB
#HF/6-31G* nosymm scf=tight 

Mol

0 1
O	 -1.487788	 1.240889	 -0.102860
C	 -1.083277	 0.139568	 0.115197
C	 0.323299	 -0.082943	 0.642902
C	 -1.933017	 -1.084621	 -0.143902
C	 1.355627	 -0.005344	 -0.493127
H	 0.396251	 -1.044647	 1.143147
H	 0.528637	 0.693580	 1.371677
C	 0.997812	 -0.915147	 -1.666785
H	 1.438523	 1.020808	 -0.844428
H	 2.327599	 -0.278536	 -0.095916
H	 1.743815	 -0.847021	 -2.451979
H	 0.037789	 -0.644557	 -2.096857
H	 0.940226	 -1.952977	 -1.352716
H	 -1.393885	 -1.806447	 -0.750509
H	 -2.850323	 -0.799888	 -0.640100
H	 -2.169004	 -1.571158	 0.798858

4 2 3 5 F

