%nprocshared=1
%mem=2GB
#HF/6-31G* nosymm scf=tight 

Mol

0 1
H	 -2.650992	 0.097517	 1.369071
O	 -1.866091	 -0.178010	 0.918418
C	 -2.119069	 -1.363904	 0.208692
C	 -2.981092	 -1.150464	 -1.030698
H	 -1.148784	 -1.745458	 -0.082234
H	 -2.576671	 -2.107592	 0.860080
C	 -2.527104	 0.016409	 -1.911135
H	 -2.981324	 -2.068340	 -1.612824
H	 -4.006196	 -0.980702	 -0.705570
C	 -2.731285	 1.377690	 -1.240284
H	 -3.073299	 -0.011017	 -2.849902
H	 -1.472364	 -0.105389	 -2.158179
C	 -2.246116	 1.459237	 0.211716
H	 -2.233417	 2.145524	 -1.829695
H	 -3.791920	 1.619027	 -1.262876
C	 -3.034785	 0.600176	 1.203932
H	 -1.202533	 1.152820	 0.241009
H	 -2.264889	 2.497639	 0.539139
C	 -4.465221	 1.099239	 1.418936
H	 -2.513054	 0.585351	 2.159802
H	 -3.070629	 -0.430836	 0.860374
C	 -5.411106	 0.710962	 0.283063
H	 -4.847259	 0.703375	 2.357459
H	 -4.456195	 2.181939	 1.526468
H	 -5.467273	 -0.368187	 0.171231
H	 -6.416738	 1.077069	 0.465559
H	 -5.076338	 1.123259	 -0.664726

14 10 7 4 F

14 10 13 16 F

10 7 4 8 F

8 4 3 2 F

10 13 16 20 F

4 3 2 1 F

