%nprocshared=1
%mem=2GB
#HF/6-31G* nosymm scf=tight 

Mol

0 1
H	 -2.646374	 -0.642757	 1.268656
C	 -2.083525	 -0.384536	 0.393091
O	 -0.807605	 -0.127164	 0.768327
F	 -2.118945	 -1.383102	 -0.486752
F	 -2.621877	 0.670592	 -0.209486
C	 0.084052	 0.273579	 -0.209957
C	 1.256999	 0.935445	 0.501584
Cl	 -0.681624	 1.405833	 -1.336436
H	 0.460650	 -0.554340	 -0.784847
F	 0.882031	 2.074474	 1.043941
F	 2.198955	 1.194100	 -0.383433
F	 1.764595	 0.169574	 1.436336

10 7 6 9 F

6 3 2 4 F

