%nprocshared=1
%mem=2GB
#HF/6-31G* nosymm scf=tight 

Mol

0 1
O	 -1.276010	 1.052711	 -0.768302
C	 -1.204840	 0.067374	 -0.106123
C	 -2.388195	 -0.672128	 0.458071
O	 -0.067104	 -0.527208	 0.221609
H	 -2.388023	 -1.694060	 0.097175
H	 -3.300579	 -0.174919	 0.164318
H	 -2.315377	 -0.706351	 1.539059
C	 1.170111	 0.034140	 -0.238951
C	 1.985333	 0.326173	 1.008333
C	 0.892300	 1.275046	 -1.072989
H	 1.666710	 -0.709522	 -0.844644
H	 2.146802	 -0.579985	 1.581093
H	 2.952188	 0.736106	 0.735426
H	 1.474428	 1.044073	 1.640985
H	 1.825793	 1.717839	 -1.405465
H	 0.306153	 1.025962	 -1.948411
H	 0.353533	 2.012890	 -0.487049

8 4 2 1 F

