%nprocshared=1
%mem=2GB
#HF/6-31G* nosymm scf=tight 

Mol

0 1
H	 -2.646374	 -0.642757	 1.268656
C	 -2.083525	 -0.384536	 0.393091
O	 -0.807605	 -0.127164	 0.768327
F	 -2.118945	 -1.383102	 -0.486752
F	 -2.621877	 0.670592	 -0.209486
C	 -0.491403	 -0.254093	 2.108697
C	 -0.981806	 -1.625945	 2.553315
Cl	 -1.262454	 1.023467	 3.062916
H	 0.568427	 -0.199736	 2.286407
F	 -2.297324	 -1.665314	 2.555187
F	 -0.564013	 -1.847683	 3.783648
F	 -0.531744	 -2.585919	 1.782687

10 7 6 9 F

9 6 3 2 F

