%nprocshared=1
%mem=2GB
#HF/6-31G* nosymm scf=tight 

Mol

0 1
O	 1.658382	 0.252701	 -4.707403
C	 1.065483	 1.149660	 -4.189360
C	 0.808224	 1.150997	 -2.692656
C	 0.571471	 2.338180	 -4.983556
C	 -0.218437	 0.071996	 -2.312044
H	 0.421307	 2.128586	 -2.426352
H	 1.733306	 0.992774	 -2.145650
C	 0.149006	 -1.302371	 -2.876593
H	 -0.285045	 0.035145	 -1.230568
H	 -1.203303	 0.357949	 -2.678125
C	 0.075323	 -1.399736	 -4.404711
H	 -0.502120	 -2.055668	 -2.436927
H	 1.160163	 -1.551941	 -2.561752
C	 -1.053427	 -2.288511	 -4.930067
H	 1.023541	 -1.787350	 -4.768483
H	 -0.024340	 -0.400645	 -4.824201
H	 -0.984148	 -3.291584	 -4.518035
H	 -1.004790	 -2.372263	 -6.011279
H	 -2.032469	 -1.894716	 -4.678683
H	 -0.515321	 2.350167	 -4.985200
H	 0.931312	 2.278838	 -6.001288
H	 0.901087	 3.268050	 -4.529134

6 3 2 1 F

6 3 5 8 F

3 5 8 12 F

