%nprocshared=1
%mem=2GB
#HF/6-31G* nosymm scf=tight 

Mol

0 1
H	 1.148083	 -1.049780	 0.784252
O	 1.319262	 -0.618148	 -0.041729
C	 0.709265	 0.639550	 -0.033818
C	 -0.487514	 0.750750	 -0.941527
H	 1.469721	 1.346427	 -0.345642
H	 0.418044	 0.922058	 0.977322
C	 -0.871674	 -0.162424	 -1.810606
H	 -1.048056	 1.667817	 -0.845280
H	 -0.327078	 -1.079218	 -1.946011
H	 -1.739555	 -0.016731	 -2.428289

5 3 4 7 F

3 4 7 9 F

