%nprocshared=1
%mem=2GB
#HF/6-31G* nosymm scf=tight 

Mol

0 1
O	 -2.324811	 1.361668	 -0.277141
C	 -2.105949	 0.203097	 -0.092081
C	 -0.889235	 -0.467034	 -0.705952
C	 -3.002726	 -0.644460	 0.782455
C	 -1.304889	 -1.451295	 -1.811214
H	 -0.376722	 -1.005315	 0.083915
H	 -0.205855	 0.275607	 -1.107826
C	 -0.103063	 -2.169541	 -2.429559
H	 -1.998588	 -2.166445	 -1.383746
H	 -1.844499	 -0.918288	 -2.592541
C	 -0.454877	 -3.112345	 -3.586020
H	 0.416511	 -2.730073	 -1.654593
H	 0.602301	 -1.424602	 -2.792016
C	 -1.293825	 -4.326070	 -3.182246
H	 0.471052	 -3.461506	 -4.035947
H	 -0.975619	 -2.552673	 -4.360412
H	 -0.801108	 -4.898507	 -2.401048
H	 -1.445330	 -4.987360	 -4.029679
H	 -2.273474	 -4.039921	 -2.814557
H	 -3.496582	 -1.399307	 0.176174
H	 -3.747939	 -0.023774	 1.260148
H	 -2.421318	 -1.168775	 1.535358

6 3 5 8 F

3 5 8 12 F

12 8 11 15 F

