%nprocshared=1
%mem=2GB
#HF/6-31G* nosymm scf=tight 

Mol

0 1
O	 2.482962	 0.317435	 -1.806766
C	 1.538803	 0.443860	 -2.524637
C	 0.138648	 0.039078	 -2.099602
C	 1.678892	 1.021447	 -3.918166
C	 0.059172	 -0.536669	 -0.688774
H	 -0.504379	 0.912977	 -2.195548
H	 -0.237249	 -0.676876	 -2.829338
C	 -1.365363	 -0.932235	 -0.296358
H	 0.447139	 0.192544	 0.015398
H	 0.714365	 -1.399233	 -0.619104
C	 -2.259874	 0.272531	 0.000494
H	 -1.812058	 -1.522037	 -1.095510
H	 -1.334834	 -1.580210	 0.578435
C	 -2.299309	 1.292585	 -1.138781
H	 -1.913636	 0.762089	 0.909048
H	 -3.271009	 -0.073077	 0.208239
C	 -3.566352	 2.147124	 -1.131721
H	 -1.427462	 1.940154	 -1.072741
H	 -2.220829	 0.772174	 -2.091079
H	 -3.656394	 2.706940	 -0.205088
H	 -3.564796	 2.860504	 -1.950126
H	 -4.455333	 1.530813	 -1.231810
H	 1.064825	 1.911116	 -4.023183
H	 2.713410	 1.272580	 -4.106687
H	 1.338568	 0.305620	 -4.660733

9 5 8 12 F

15 11 8 12 F

1 2 3 6 F

9 5 3 6 F

