%nprocshared=1
%mem=2GB
#HF/6-31G* nosymm scf=tight 

Mol

0 1
O	 -2.042549	 -1.228399	 -0.269030
C	 -1.653912	 -0.146171	 0.050137
C	 -0.332303	 0.024011	 0.778412
C	 -2.438579	 1.106236	 -0.272369
C	 0.845713	 -0.001731	 -0.208243
H	 -0.323783	 0.953829	 1.340327
H	 -0.235459	 -0.796807	 1.480410
C	 2.200309	 0.136118	 0.488247
H	 0.733710	 0.800019	 -0.936072
H	 0.811185	 -0.933796	 -0.764304
C	 3.190486	 0.985494	 -0.307566
H	 2.057377	 0.574535	 1.473532
H	 2.621187	 -0.853304	 0.650953
H	 2.812150	 1.992674	 -0.457578
H	 3.378414	 0.553881	 -1.286256
H	 4.142229	 1.063362	 0.208329
H	 -3.277823	 0.863061	 -0.908988
H	 -1.806773	 1.843019	 -0.759671
H	 -2.802853	 1.554979	 0.648059

9 5 3 2 F

5 3 2 4 F

