%nprocshared=1
%mem=2GB
#HF/6-31G* nosymm scf=tight 

Mol

0 1
H	 -2.646374	 -0.642757	 1.268656
C	 -2.083525	 -0.384536	 0.393091
O	 -0.807605	 -0.127164	 0.768327
F	 -2.118945	 -1.383102	 -0.486752
F	 -2.621877	 0.670592	 -0.209486
C	 0.091243	 0.244859	 -0.214708
C	 -0.547489	 1.388948	 -0.991395
Cl	 0.449366	 -1.115995	 -1.290366
H	 1.024101	 0.592457	 0.193612
F	 -1.579264	 0.954834	 -1.683583
F	 0.338673	 1.873713	 -1.838247
F	 -0.944699	 2.359583	 -0.205223

10 7 6 9 F

9 6 3 2 F

