%nprocshared=1
%mem=2GB
#HF/6-31G* nosymm scf=tight 

Mol

0 1
H	 1.519000	 -1.901161	 -0.898097
C	 0.611832	 -1.348782	 -1.082429
O	 0.464886	 -0.454746	 -0.000158
H	 -0.222684	 -2.037919	 -1.134384
H	 0.702781	 -0.813596	 -2.020174
C	 -0.590998	 0.343045	 0.000118
O	 -1.699443	 -0.054298	 0.000227
H	 -0.340329	 1.404368	 0.000207
