%nprocshared=1
%mem=2GB
#HF/6-31G* nosymm scf=tight 

Mol

0 1
O	 1.667636	 1.553421	 -2.162671
C	 0.788116	 1.716284	 -1.379704
C	 -0.516134	 0.957269	 -1.353318
O	 0.844803	 2.608686	 -0.399122
C	 -0.823008	 0.326187	 0.001381
H	 -1.299814	 1.647936	 -1.652547
H	 -0.470175	 0.205508	 -2.136556
C	 -2.149452	 -0.435131	 -0.000098
H	 -0.843475	 1.101601	 0.760659
H	 -0.013637	 -0.343128	 0.275686
C	 -3.368779	 0.488503	 -0.000883
H	 -2.193746	 -1.087250	 -0.871175
H	 -2.195311	 -1.087803	 0.870418
C	 -3.346354	 1.505125	 -1.141597
H	 -3.422266	 1.013619	 0.950187
H	 -4.273627	 -0.111280	 -0.069069
H	 -2.469560	 2.143689	 -1.080920
H	 -4.223185	 2.144600	 -1.115337
H	 -3.327221	 1.009791	 -2.108339
C	 2.021885	 3.390549	 -0.308991
H	 2.885563	 2.760454	 -0.152249
H	 1.877679	 4.044612	 0.536753
H	 2.163566	 3.969480	 -1.210252

15 11 8 12 F

9 5 8 12 F

9 5 3 6 F

1 2 4 20 F

