%nprocshared=1
%mem=2GB
#HF/6-31G* nosymm scf=tight 

Mol

0 1
O	 0.646060	 1.529535	 -0.214344
C	 0.788116	 1.716284	 -1.379704
C	 1.147857	 0.664340	 -2.400423
O	 0.640172	 2.906476	 -1.947763
C	 0.326192	 -0.614382	 -2.268584
H	 1.026278	 1.110900	 -3.383539
H	 2.210468	 0.461956	 -2.297385
C	 -1.178507	 -0.340712	 -2.275483
H	 0.604135	 -1.125095	 -1.352010
H	 0.582283	 -1.289218	 -3.079338
C	 -1.679216	 0.279673	 -0.970005
H	 -1.424027	 0.321989	 -3.104061
H	 -1.716376	 -1.269461	 -2.459883
C	 -0.917658	 1.546058	 -0.580714
H	 -1.596524	 -0.452194	 -0.169585
H	 -2.738178	 0.509460	 -1.064538
H	 0.140565	 1.341379	 -0.444752
H	 -1.295640	 1.962042	 0.348016
H	 -1.009801	 2.310564	 -1.347102
C	 1.792514	 3.724689	 -2.034891
H	 2.180449	 3.940881	 -1.049855
H	 1.472688	 4.634305	 -2.518819
H	 2.560106	 3.239076	 -2.620117

15 11 8 12 F

9 5 8 12 F

1 2 3 6 F

9 5 3 6 F

