%nprocshared=1
%mem=2GB
#HF/6-31G* nosymm scf=tight 

Mol

0 1
O	 3.225979	 0.970355	 -0.599647
C	 2.701189	 0.057885	 -0.047330
C	 1.245376	 -0.013843	 0.345420
O	 3.347903	 -1.046386	 0.304773
C	 0.455112	 1.231400	 -0.050772
H	 0.838542	 -0.913825	 -0.103701
H	 1.208210	 -0.175333	 1.419774
C	 -0.998893	 1.219485	 0.433193
H	 0.482531	 1.345121	 -1.130325
H	 0.957290	 2.103070	 0.354729
C	 -1.883438	 0.145884	 -0.207175
H	 -1.431207	 2.195402	 0.224832
H	 -1.019646	 1.105716	 1.516076
C	 -3.100916	 0.729625	 -0.926892
H	 -1.290032	 -0.431148	 -0.914792
H	 -2.226174	 -0.557046	 0.548731
C	 -4.125285	 1.352971	 0.022971
H	 -3.582968	 -0.052672	 -1.510736
H	 -2.770387	 1.481963	 -1.641342
C	 -3.493566	 2.291437	 1.050548
H	 -4.867115	 1.899051	 -0.555930
H	 -4.664422	 0.562289	 0.540595
H	 -4.244448	 2.717234	 1.708940
H	 -2.975620	 3.113416	 0.564465
H	 -2.770947	 1.766408	 1.668965
C	 4.728119	 -1.109107	 -0.004993
H	 4.882018	 -1.033965	 -1.071845
H	 5.068212	 -2.067527	 0.355250
H	 5.265056	 -0.311663	 0.488280

21 17 14 11 F

17 14 11 15 F

6 3 5 9 F

11 8 5 9 F

2 4 26 27 F

1 2 4 26 F

6 3 2 1 F

