%nprocshared=1
%mem=2GB
#HF/6-31G* nosymm scf=tight 

Mol

0 1
H	 -2.499100	 -0.730091	 -0.745082
O	 -2.347518	 -0.290803	 0.079804
C	 -1.184022	 0.487508	 -0.006784
C	 0.062599	 -0.378592	 0.031606
H	 -1.176523	 1.099369	 -0.904519
H	 -1.187323	 1.153111	 0.844927
O	 1.087029	 0.313212	 -0.610057
H	 -0.127610	 -1.331206	 -0.466718
H	 0.323330	 -0.597962	 1.065279
C	 2.311285	 -0.350226	 -0.623904
H	 2.241452	 -1.303345	 -1.144785
H	 3.019262	 0.281297	 -1.142411
H	 2.674812	 -0.534066	 0.384978

1 2 3 5 F

10 7 4 8 F

4 7 10 13 F

