%nprocshared=1
%mem=2GB
#HF/6-31G* nosymm scf=tight 

Mol

0 1
O	 1.561006	 0.928536	 -1.838499
C	 0.456886	 1.320492	 -1.611071
C	 -0.619956	 0.370598	 -1.116682
C	 0.083032	 2.777271	 -1.770450
C	 -1.047154	 -0.600408	 -2.229242
H	 -1.471652	 0.968965	 -0.811930
H	 -0.270802	 -0.186175	 -0.251742
C	 0.149006	 -1.302371	 -2.876593
H	 -1.729754	 -1.325822	 -1.801204
H	 -1.602192	 -0.059694	 -2.994297
C	 0.075323	 -1.399736	 -4.404711
H	 0.247240	 -2.302033	 -2.457363
H	 1.057485	 -0.767858	 -2.606759
C	 -1.053427	 -2.288511	 -4.930067
H	 1.023541	 -1.787350	 -4.768483
H	 -0.024340	 -0.400645	 -4.824201
H	 -0.984148	 -3.291584	 -4.518035
H	 -1.004790	 -2.372263	 -6.011279
H	 -2.032469	 -1.894716	 -4.678683
H	 -0.637998	 2.883238	 -2.576770
H	 0.963219	 3.362792	 -1.996769
H	 -0.388848	 3.154073	 -0.867591

6 3 2 1 F

6 3 5 8 F

12 8 11 15 F

