%nprocshared=1
%mem=2GB
#HF/6-31G* nosymm scf=tight 

Mol

0 1
H	 -0.944757	 -0.000069	 1.678017
O	 -0.042387	 -0.000390	 1.388199
C	 -0.001487	 0.000018	 -0.026623
C	 -0.480185	 -1.354350	 -0.553099
C	 -0.877275	 1.133582	 -0.563906
C	 1.462569	 0.232136	 -0.383109
H	 -0.421310	 -1.401701	 -1.635776
H	 -1.514792	 -1.534916	 -0.270450
H	 0.125274	 -2.153106	 -0.139062
H	 -0.836286	 1.186296	 -1.647249
H	 -1.916721	 0.986553	 -0.279537
H	 -0.549746	 2.084831	 -0.159276
H	 1.602816	 0.249299	 -1.459111
H	 2.079114	 -0.556286	 0.033725
H	 1.802173	 1.177281	 0.025257
