%nprocshared=1
%mem=2GB
#HF/6-31G* nosymm scf=tight 

Mol

0 1
H	 -2.273092	 1.173159	 0.000295
O	 -1.438904	 1.618192	 0.000114
C	 -0.409536	 0.736003	 0.000030
C	 0.465426	 0.801649	 -1.072971
C	 -0.226216	 -0.195837	 1.019348
H	 0.287272	 1.535217	 -1.837254
C	 1.538643	 -0.066131	 -1.141341
C	 0.861217	 -1.055787	 0.924673
C	 -1.182063	 -0.265961	 2.189155
H	 2.213844	 -0.010056	 -1.976477
C	 1.742930	 -1.002073	 -0.140213
H	 1.016715	 -1.781487	 1.704111
H	 -2.198249	 -0.490075	 1.871223
H	 -0.885065	 -1.045089	 2.879609
H	 -1.207780	 0.666213	 2.749857
H	 2.575533	 -1.680155	 -0.186874
