%nprocshared=1
%mem=2GB
#HF/6-31G* nosymm scf=tight 

Mol

0 1
H	 -3.161837	 0.500524	 -0.000234
C	 -2.367097	 -0.232926	 -0.000000
O	 -1.158440	 0.455814	 -0.000122
H	 -2.468853	 -0.861886	 -0.882833
H	 -2.468942	 -0.861421	 0.883154
C	 -1.058687	 1.440634	 0.983775
C	 0.300233	 2.109559	 0.871797
H	 -1.182068	 0.997128	 1.972703
H	 -1.854304	 2.176601	 0.860266
C	 1.079955	 1.646558	 -0.358059
H	 0.153043	 3.184712	 0.839520
H	 0.863868	 1.897480	 1.775145
H	 0.543434	 1.871824	 -1.275569
H	 2.045001	 2.139047	 -0.412708
H	 1.258741	 0.575183	 -0.333679

6 3 2 4 F

8 6 3 2 F

