%nprocshared=1
%mem=2GB
#HF/6-31G* nosymm scf=tight 

Mol

0 1
O	 -1.276010	 1.052711	 -0.768302
C	 -1.204840	 0.067374	 -0.106123
C	 -2.388195	 -0.672128	 0.458071
O	 -0.067104	 -0.527208	 0.221609
H	 -2.388023	 -1.694060	 0.097175
H	 -3.300579	 -0.174919	 0.164318
H	 -2.315377	 -0.706351	 1.539059
C	 0.068195	 -1.939074	 0.006531
C	 -0.321086	 -2.179434	 -1.441321
C	 -0.808598	 -2.695286	 0.992443
H	 1.104216	 -2.200794	 0.163599
H	 0.316675	 -1.611024	 -2.108718
H	 -0.221221	 -3.231943	 -1.685419
H	 -1.349700	 -1.882723	 -1.616163
H	 -0.728359	 -3.763816	 0.819756
H	 -0.502572	 -2.494045	 2.011181
H	 -1.848218	 -2.406951	 0.873858

11 8 4 2 F

