%nprocshared=1
%mem=2GB
#HF/6-31G* nosymm scf=tight 

Mol

0 1
H	 2.014914	 -0.726108	 2.709555
O	 2.443552	 -0.199062	 2.049108
C	 1.588601	 0.138381	 1.063021
C	 2.088218	 0.915726	 0.022799
C	 0.264988	 -0.256789	 1.058397
H	 3.120453	 1.210081	 0.049334
C	 1.262564	 1.293602	 -1.015743
H	 -0.146399	 -0.855765	 1.846759
C	 -0.536158	 0.140425	 0.000000
H	 1.656573	 1.893771	 -1.814750
C	 -0.071340	 0.909175	 -1.043319
N	 -1.935604	 -0.280333	 0.000000
H	 -0.724095	 1.194445	 -1.842029
O	 -2.161694	 -1.452901	 0.000000
O	 -2.770341	 0.571417	 0.000000

4 3 2 1 F

