%nprocshared=1
%mem=2GB
#HF/6-31G* nosymm scf=tight 

Mol

0 1
H	 1.275039	 -2.172913	 2.236924
O	 1.068965	 -1.920440	 1.342173
C	 0.075295	 -1.033454	 1.380981
C	 -0.318135	 -0.576402	 0.000164
O	 -0.412229	 -0.674372	 2.402929
C	 -1.454360	 0.441875	 -0.000474
H	 0.572785	 -0.173419	 -0.474040
H	 -0.582203	 -1.462142	 -0.571446
C	 -2.826123	 -0.230780	 0.000056
H	 -1.357605	 1.085198	 -0.868380
H	 -1.357504	 1.086451	 0.866496
H	 -2.959731	 -0.858053	 -0.876869
H	 -3.619374	 0.509403	 -0.000080
H	 -2.959371	 -0.857318	 0.877556

2 3 4 7 F

1 2 3 5 F

