%nprocshared=1
%mem=2GB
#HF/6-31G* nosymm scf=tight 

Mol

0 1
H	 1.287534	 -0.006448	 1.042250
N	 0.309609	 0.018145	 0.827697
C	 -0.126927	 -1.249427	 0.269304
H	 0.169894	 0.745917	 0.153949
C	 0.453041	 -1.430465	 -1.117778
H	 0.150701	 -2.114152	 0.873601
H	 -1.209874	 -1.240076	 0.192356
O	 -0.088814	 -0.446451	 -1.951562
H	 1.538537	 -1.338859	 -1.087011
H	 0.203935	 -2.421030	 -1.491893
C	 0.295968	 -0.548357	 -3.285402
H	 1.077210	 -1.293847	 -3.345427
H	 -0.534823	 -0.858547	 -3.916710
H	 0.680852	 0.397273	 -3.661511

8 5 3 6 F

6 3 2 4 F

11 8 5 3 F

