%nprocshared=1
%mem=2GB
#HF/6-31G* nosymm scf=tight 

Mol

0 1
O	 1.825465	 1.324323	 -0.951462
C	 0.788116	 1.716284	 -1.379704
C	 -0.516134	 0.957269	 -1.353318
O	 0.640172	 2.906476	 -1.947763
C	 -0.823008	 0.326187	 0.001381
H	 -1.299814	 1.647936	 -1.652547
H	 -0.470175	 0.205508	 -2.136556
C	 0.080662	 0.865682	 1.111059
H	 -0.713110	 -0.751121	 -0.072894
H	 -1.863563	 0.506531	 0.252440
C	 1.511097	 0.329738	 1.030575
H	 0.102856	 1.953541	 1.065606
H	 -0.343007	 0.610935	 2.081363
C	 2.159536	 0.562587	 -0.333448
H	 1.508766	 -0.735089	 1.252563
H	 2.115065	 0.800669	 1.802963
H	 1.596879	 0.073963	 -1.123940
H	 3.172157	 0.172203	 -0.358935
H	 2.207575	 1.621994	 -0.569372
C	 1.792514	 3.724689	 -2.034891
H	 2.180449	 3.940881	 -1.049855
H	 1.472688	 4.634305	 -2.518819
H	 2.560106	 3.239076	 -2.620117

15 11 8 12 F

9 5 8 12 F

1 2 3 6 F

1 2 4 20 F

