%nprocshared=1
%mem=2GB
#HF/6-31G* nosymm scf=tight 

Mol

0 1
O	 -0.644987	 -1.652990	 1.664992
C	 -1.514987	 -1.440192	 0.882411
C	 -2.775474	 -2.260464	 0.784449
O	 -1.481751	 -0.454642	 0.000584
H	 -3.283566	 -2.233162	 1.740984
H	 -3.433286	 -1.897333	 0.008654
H	 -2.505502	 -3.290827	 0.586090
C	 -0.334255	 0.388708	 0.000906
C	 0.891947	 -0.504646	 0.000751
H	 -0.365390	 1.025305	 -0.873475
H	 -0.365484	 1.024911	 0.875569
C	 0.838286	 -1.556101	 -1.109219
H	 0.972990	 -0.989855	 0.969484
H	 1.777328	 0.114301	 -0.115286
C	 0.470272	 -2.948618	 -0.593671
H	 0.115525	 -1.251563	 -1.864176
H	 1.802725	 -1.604017	 -1.611855
C	 0.415376	 -3.998498	 -1.702547
H	 -0.493414	 -2.902628	 -0.091406
H	 1.192826	 -3.255485	 0.159202
H	 -0.323424	 -3.736485	 -2.454570
H	 0.152138	 -4.974210	 -1.306408
H	 1.375546	 -4.092241	 -2.201842

13 9 8 10 F

2 4 8 10 F

19 15 12 16 F

1 2 4 8 F

