%nprocshared=1
%mem=2GB
#HF/6-31G* nosymm scf=tight 

Mol

0 1
H	 -0.431882	 -2.245107	 -2.681692
O	 -0.486126	 -1.444281	 -2.180054
C	 -1.108529	 -1.700407	 -0.947332
C	 -1.177863	 -0.397191	 -0.171080
H	 -2.111215	 -2.097563	 -1.099631
H	 -0.546608	 -2.442076	 -0.381194
C	 0.198102	 0.111031	 0.262842
H	 -1.811680	 -0.550330	 0.698145
H	 -1.673100	 0.344473	 -0.791686
C	 1.331804	 -0.827780	 -0.158768
H	 0.361943	 1.100838	 -0.156218
H	 0.217265	 0.229072	 1.345532
C	 2.723619	 -0.410569	 0.329459
H	 1.342964	 -0.912588	 -1.244120
H	 1.116806	 -1.824343	 0.220779
C	 3.243875	 0.895854	 -0.272975
H	 3.424222	 -1.207124	 0.091250
H	 2.714788	 -0.329854	 1.414619
H	 3.251977	 0.848779	 -1.358681
H	 2.637085	 1.747371	 0.016682
H	 4.259473	 1.094070	 0.055697

2 3 4 8 F

4 7 10 14 F

16 13 10 14 F

1 2 3 5 F

