%nprocshared=1
%mem=2GB
#HF/6-31G* nosymm scf=tight 

Mol

0 1
H	 -3.457960	 0.166880	 1.449720
O	 -3.367910	 -0.300316	 2.267454
C	 -3.043259	 -1.643282	 2.012310
C	 -1.609705	 -1.833855	 1.529264
H	 -3.184960	 -2.163733	 2.950780
H	 -3.740919	 -2.074362	 1.295219
C	 -1.314720	 -1.174099	 0.179978
H	 -0.935821	 -1.437562	 2.284379
H	 -1.414703	 -2.902721	 1.459510
C	 0.118911	 -1.420977	 -0.298115
H	 -1.491856	 -0.105099	 0.258887
H	 -2.010992	 -1.553075	 -0.568302
C	 0.591473	 -2.875570	 -0.192354
H	 0.215252	 -1.085385	 -1.329106
H	 0.791185	 -0.797220	 0.287271
C	 0.738387	 -3.403109	 1.237540
H	 -0.119748	 -3.505337	 -0.722802
H	 1.539927	 -2.984322	 -0.716228
C	 1.109102	 -4.886757	 1.290410
H	 -0.195918	 -3.247916	 1.775220
H	 1.495187	 -2.832966	 1.770918
C	 1.262662	 -5.414317	 2.716511
H	 0.348709	 -5.466430	 0.771498
H	 2.037379	 -5.045308	 0.745386
H	 0.339937	 -5.299802	 3.278372
H	 1.523404	 -6.468183	 2.720545
H	 2.042367	 -4.879017	 3.251186

14 10 7 4 F

14 10 13 16 F

8 4 3 2 F

10 13 16 20 F

20 16 19 22 F

4 3 2 1 F

