%nprocshared=1
%mem=2GB
#HF/6-31G* nosymm scf=tight 

Mol

0 1
H	 3.083879	 -1.346558	 0.395444
O	 2.172668	 -1.603300	 0.415122
C	 1.365383	 -0.540424	 0.207814
C	 1.548980	 0.337930	 -0.852417
C	 0.324948	 -0.341819	 1.098590
H	 2.359290	 0.181566	 -1.544503
C	 0.692907	 1.413274	 -1.021076
H	 0.182016	 -1.019524	 1.917958
C	 -0.527564	 0.737207	 0.922571
H	 0.844989	 2.086237	 -1.845315
C	 -0.349522	 1.619393	 -0.135644
C	 -1.647376	 0.956437	 1.875896
H	 -1.015668	 2.454010	 -0.264755
O	 -1.988782	 0.176137	 2.706029
H	 -2.163039	 1.915494	 1.768426

11 9 12 14 F

