%nprocshared=1
%mem=2GB
#HF/6-31G* nosymm scf=tight 

Mol

0 1
H	 -3.457960	 0.166880	 1.449720
O	 -3.367910	 -0.300316	 2.267454
C	 -3.043259	 -1.643282	 2.012310
C	 -1.609705	 -1.833855	 1.529264
H	 -3.184960	 -2.163733	 2.950780
H	 -3.740919	 -2.074362	 1.295219
C	 -1.314720	 -1.174099	 0.179978
H	 -0.935821	 -1.437562	 2.284379
H	 -1.414703	 -2.902721	 1.459510
C	 -1.147553	 -2.191804	 -0.951902
H	 -0.412552	 -0.574768	 0.265195
H	 -2.123952	 -0.488754	 -0.072581
C	 -2.227787	 -3.278334	 -1.005648
H	 -1.118262	 -1.666074	 -1.904580
H	 -0.178741	 -2.674714	 -0.842809
C	 -2.220447	 -4.253353	 0.174930
H	 -3.200068	 -2.791766	 -1.047319
H	 -2.129877	 -3.836796	 -1.935363
C	 -3.379169	 -5.251773	 0.130689
H	 -2.268115	 -3.690229	 1.105913
H	 -1.283252	 -4.804131	 0.199654
C	 -3.370525	 -6.230308	 1.304597
H	 -4.321854	 -4.708876	 0.120824
H	 -3.338828	 -5.808625	 -0.803213
H	 -3.442778	 -5.705453	 2.253033
H	 -4.204367	 -6.923055	 1.245905
H	 -2.455323	 -6.815543	 1.320991

14 10 7 4 F

14 10 13 16 F

8 4 3 2 F

10 13 16 20 F

20 16 19 22 F

4 3 2 1 F

