%nprocshared=1
%mem=2GB
#HF/6-31G* nosymm scf=tight 

Mol

0 1
H	 -2.544884	 3.671784	 1.184900
N	 -1.734974	 3.099362	 1.043749
C	 -1.868619	 1.833153	 1.749710
H	 -0.950818	 3.615885	 1.394652
C	 -0.679127	 0.925656	 1.454222
H	 -2.779195	 1.355752	 1.400714
H	 -1.972907	 1.953546	 2.830926
C	 -0.679275	 0.379305	 0.025956
H	 0.233346	 1.484010	 1.642556
H	 -0.682589	 0.093940	 2.158192
C	 -0.791153	 1.473151	 -1.037697
H	 -1.505632	 -0.319904	 -0.092751
H	 0.230849	 -0.193594	 -0.145238
C	 -2.115055	 2.234023	 -0.975523
H	 0.033362	 2.173024	 -0.921214
H	 -0.676491	 1.028719	 -2.024099
H	 -2.243718	 2.718807	 -0.011807
H	 -2.163946	 3.002377	 -1.740928
H	 -2.958889	 1.565841	 -1.123406

6 3 5 9 F

12 8 5 9 F

1 2 3 6 F

