%nprocshared=1
%mem=2GB
#HF/6-31G* nosymm scf=tight 

Mol

0 1
H	 -1.836216	 1.387520	 -0.000064
C	 -1.301823	 0.443321	 -0.000031
O	 -0.003969	 0.658512	 0.000451
O	 -1.829879	 -0.616434	 -0.000857
C	 0.850537	 -0.484732	 0.000380
C	 2.265264	 0.005927	 -0.218982
H	 0.532445	 -1.157615	 -0.784071
H	 0.745467	 -0.999097	 0.945728
H	 2.349832	 0.525423	 -1.166614
H	 2.949761	 -0.835884	 -0.226287
H	 2.564040	 0.684733	 0.571488

5 3 2 4 F

