%nprocshared=1
%mem=2GB
#HF/6-31G* nosymm scf=tight 

Mol

0 1
H	 1.148083	 -1.049780	 0.784252
O	 1.319262	 -0.618148	 -0.041729
C	 0.709265	 0.639550	 -0.033818
C	 0.045408	 1.011689	 -1.333582
H	 1.492441	 1.354060	 0.192706
H	 -0.019649	 0.711059	 0.772778
C	 0.139627	 0.332145	 -2.458796
H	 -0.543312	 1.915492	 -1.301493
H	 0.731747	 -0.561991	 -2.531906
H	 -0.363291	 0.656582	 -3.351988

5 3 4 7 F

3 4 7 9 F

