%nprocshared=1
%mem=2GB
#HF/6-31G* nosymm scf=tight 

Mol

0 1
O	 -0.806752	 -1.114546	 1.082146
C	 -0.561929	 -0.074560	 0.531515
C	 -1.597472	 1.034011	 0.503089
N	 0.623947	 0.147590	 -0.102813
H	 -1.868528	 1.298769	 -0.513038
H	 -2.472791	 0.671041	 1.019920
H	 -1.237628	 1.928840	 0.999450
C	 1.547313	 1.108848	 0.467498
C	 0.894321	 -0.233995	 -1.471585
H	 2.500744	 1.041676	 -0.044825
H	 1.687550	 0.894708	 1.512686
H	 1.173581	 2.125214	 0.363839
H	 1.947662	 -0.466853	 -1.573015
H	 0.337326	 -1.112415	 -1.756308
H	 0.659030	 0.566530	 -2.170592

2 4 8 10 F

