%nprocshared=1
%mem=2GB
#HF/6-31G* nosymm scf=tight 

Mol

0 1
O	 0.732140	 0.694945	 -1.985387
C	 0.788116	 1.716284	 -1.379704
C	 1.035373	 1.845463	 0.103551
O	 0.640172	 2.906476	 -1.947763
C	 2.194636	 0.987888	 0.601867
H	 1.205273	 2.897886	 0.313920
H	 0.109270	 1.588725	 0.610638
C	 3.480656	 1.234616	 -0.188285
H	 1.917657	 -0.059685	 0.538139
H	 2.363480	 1.191628	 1.654621
C	 3.448352	 0.621458	 -1.589303
H	 3.657375	 2.306074	 -0.270407
H	 4.328703	 0.828249	 0.360864
C	 2.236704	 1.066307	 -2.407393
H	 3.450286	 -0.463135	 -1.506879
H	 4.359965	 0.888369	 -2.119264
H	 1.308350	 0.782582	 -1.919673
H	 2.242290	 0.615398	 -3.394865
H	 2.225026	 2.144962	 -2.536535
C	 1.792514	 3.724689	 -2.034891
H	 2.180449	 3.940881	 -1.049855
H	 1.472688	 4.634305	 -2.518819
H	 2.560106	 3.239076	 -2.620117

15 11 8 12 F

9 5 8 12 F

1 2 3 6 F

9 5 3 6 F

