%nprocshared=1
%mem=2GB
#HF/6-31G* nosymm scf=tight 

Mol

0 1
H	 -3.161837	 0.500524	 -0.000234
C	 -2.367097	 -0.232926	 -0.000000
O	 -1.158440	 0.455814	 -0.000122
H	 -2.468853	 -0.861886	 -0.882833
H	 -2.468942	 -0.861421	 0.883154
C	 -1.058687	 1.440634	 0.983775
C	 0.300233	 2.109559	 0.871797
H	 -1.182068	 0.997128	 1.972703
H	 -1.854304	 2.176601	 0.860266
C	 0.384862	 3.400608	 1.684760
H	 1.058204	 1.406906	 1.204094
H	 0.498870	 2.312331	 -0.176118
H	 0.212942	 3.215674	 2.741485
H	 1.364249	 3.856640	 1.586369
H	 -0.350931	 4.127401	 1.351917

6 3 2 4 F

8 6 3 2 F

