%nprocshared=1
%mem=2GB
#HF/6-31G* nosymm scf=tight 

Mol

0 1
H	 2.913941	 1.773294	 0.229160
C	 2.320158	 0.863947	 0.256484
C	 0.851043	 1.180754	 -0.005151
H	 2.434479	 0.406295	 1.232828
H	 2.731460	 0.182808	 -0.480683
N	 -0.000257	 -0.000071	 0.054619
H	 0.518765	 1.880000	 0.751832
H	 0.742995	 1.696980	 -0.963548
C	 -1.363055	 0.315058	 0.462241
C	 0.047691	 -0.784612	 -1.172106
C	 -2.412078	 -0.285320	 -0.468531
H	 -1.482241	 1.391144	 0.451970
H	 -1.549931	 -0.001174	 1.492681
C	 -0.221006	 -2.267644	 -0.936185
H	 1.037014	 -0.687337	 -1.600978
H	 -0.647272	 -0.391118	 -1.919753
H	 -2.262839	 0.075384	 -1.480151
H	 -2.369300	 -1.368867	 -0.491760
H	 -3.410332	 -0.003975	 -0.144961
H	 0.505343	 -2.671829	 -0.239991
H	 -1.209526	 -2.446479	 -0.527042
H	 -0.148665	 -2.818459	 -1.869831
