%nprocshared=1
%mem=2GB
#HF/6-31G* nosymm scf=tight 

Mol

0 1
H	 2.132501	 1.486064	 -2.161365
C	 1.889710	 0.949276	 -1.248596
C	 0.388876	 0.687886	 -1.169277
H	 2.209196	 1.546323	 -0.401703
H	 2.467609	 0.031365	 -1.245736
N	 -0.000257	 -0.000071	 0.054619
H	 -0.120039	 1.643079	 -1.200716
H	 0.056167	 0.137463	 -2.054165
C	 -1.363055	 0.315058	 0.462241
C	 0.244878	 -1.434770	 -0.010220
C	 -2.412078	 -0.285320	 -0.468531
H	 -1.482241	 1.391144	 0.451970
H	 -1.549931	 -0.001174	 1.492681
C	 0.515659	 -2.050650	 1.358944
H	 1.114713	 -1.604619	 -0.632067
H	 -0.583994	 -1.955168	 -0.499040
H	 -2.262839	 0.075384	 -1.480151
H	 -2.369300	 -1.368867	 -0.491760
H	 -3.410332	 -0.003975	 -0.144961
H	 1.374721	 -1.574655	 1.818375
H	 -0.326524	 -1.939956	 2.033500
H	 0.719937	 -3.113296	 1.262093
