%nprocshared=1
%mem=2GB
#HF/6-31G* nosymm scf=tight 

Mol

0 1
H	 -2.175068	 0.766014	 2.230609
O	 -1.352452	 1.236145	 2.219096
C	 -1.104946	 1.689962	 0.920345
C	 -0.795902	 0.595680	 -0.067389
H	 -0.259908	 2.365237	 0.991882
H	 -1.943240	 2.279098	 0.549931
C	 -1.522220	 -0.487727	 -0.255690
H	 0.102353	 0.745527	 -0.646323
H	 -1.071454	 -1.449856	 -0.418625
H	 -2.596511	 -0.445958	 -0.267127

5 3 2 1 F

5 3 4 7 F

