%nprocshared=1
%mem=2GB
#HF/6-31G* nosymm scf=tight 

Mol

0 1
H	 0.908148	 -1.107709	 1.118607
O	 1.293477	 -0.294733	 0.821213
C	 0.339462	 0.722707	 0.914136
C	 -0.795902	 0.595680	 -0.067389
H	 0.870053	 1.651673	 0.738929
H	 -0.066103	 0.781909	 1.923610
C	 -1.522220	 -0.487727	 -0.255690
H	 -0.998105	 1.483348	 -0.646734
H	 -1.071454	 -1.449856	 -0.418625
H	 -2.596511	 -0.445958	 -0.267127

5 3 2 1 F

5 3 4 7 F

