%nprocshared=1
%mem=2GB
#HF/6-31G* nosymm scf=tight 

Mol

0 1
H	 -3.489899	 1.228218	 -1.029938
O	 -3.452007	 0.283848	 -0.965577
C	 -3.181085	 -0.079926	 0.364119
C	 -1.765924	 0.277073	 0.805136
H	 -3.327791	 -1.152017	 0.410903
H	 -3.905698	 0.375695	 1.036898
C	 -1.108778	 1.351220	 -0.062553
H	 -1.790975	 0.608212	 1.843732
H	 -1.163977	 -0.629944	 0.790987
C	 -0.818105	 0.876733	 -1.487878
H	 -0.187434	 1.677119	 0.410337
H	 -1.758540	 2.224099	 -0.098413
C	 -2.015640	 0.176712	 -2.135924
H	 -0.516211	 1.730334	 -2.090078
H	 0.031685	 0.195314	 -1.476504
C	 -2.399271	 -1.162549	 -1.496110
H	 -1.812587	 0.022969	 -3.194616
H	 -2.875632	 0.841378	 -2.086411
C	 -3.746710	 -1.723491	 -1.954541
H	 -2.425123	 -1.033480	 -0.416776
H	 -1.617558	 -1.893045	 -1.694863
H	 -4.546533	 -1.008784	 -1.779568
H	 -3.991374	 -2.631124	 -1.411239
H	 -3.746853	 -1.967965	 -3.011611

20 16 13 17 F

17 13 10 7 F

13 10 7 11 F

11 7 4 3 F

1 2 3 5 F

