%nprocshared=1
%mem=2GB
#HF/6-31G* nosymm scf=tight 

Mol

0 1
H	 -3.108377	 -0.333184	 0.027110
C	 -2.907052	 0.556856	 -0.565712
O	 -1.556000	 0.664541	 -0.879401
H	 -3.453451	 0.488594	 -1.496265
H	 -3.260758	 1.426511	 -0.013426
C	 -0.719715	 0.768384	 0.229244
C	 0.719720	 0.768376	 -0.229267
H	 -0.923293	 1.692827	 0.771145
H	 -0.878251	 -0.063139	 0.912939
O	 1.392611	 -0.295398	 0.366430
H	 0.750534	 0.687200	 -1.313918
H	 1.185043	 1.714359	 0.050526
C	 2.706965	 -0.449871	 -0.062409
H	 2.756559	 -0.644779	 -1.131878
H	 3.305899	 0.433456	 0.155466
H	 3.125548	 -1.294566	 0.467107

7 10 13 14 F

2 3 6 7 F

