%nprocshared=1
%mem=2GB
#HF/6-31G* nosymm scf=tight 

Mol

0 1
H	 1.353289	 -2.121022	 0.666049
C	 0.411715	 -1.614290	 0.802858
O	 0.464886	 -0.454746	 -0.000158
H	 0.291466	 -1.358468	 1.848860
H	 -0.394890	 -2.267243	 0.491244
C	 -0.590998	 0.343045	 0.000118
O	 -1.699443	 -0.054298	 0.000227
H	 -0.340329	 1.404368	 0.000207
