%nprocshared=1
%mem=2GB
#HF/6-31G* nosymm scf=tight 

Mol

0 1
H	 -0.808425	 -2.469168	 0.515093
N	 -0.056027	 -1.819430	 0.391736
C	 -0.563778	 -0.502042	 0.037919
H	 0.522236	 -2.181884	 -0.342427
C	 0.575259	 0.508231	 -0.048326
H	 -1.255979	 -0.194666	 0.816105
H	 -1.124586	 -0.494861	 -0.900264
C	 1.954651	 -0.143624	 0.035137
H	 0.475158	 1.060484	 -0.977307
H	 0.469181	 1.234488	 0.755973
H	 2.103292	 -0.853109	 -0.774172
H	 2.742821	 0.599562	 -0.030094
H	 2.083613	 -0.679371	 0.971560

1 2 3 6 F

