%nprocshared=1
%mem=2GB
#HF/6-31G* nosymm scf=tight 

Mol

0 1
H	 -3.420663	 1.227371	 -1.044276
O	 -3.452007	 0.283848	 -0.965577
C	 -3.181085	 -0.079926	 0.364119
C	 -1.765924	 0.277073	 0.805136
H	 -3.327791	 -1.152017	 0.410903
H	 -3.905698	 0.375695	 1.036898
C	 -0.677594	 -0.417312	 -0.014550
H	 -1.637766	 1.358238	 0.744969
H	 -1.659588	 0.017670	 1.857098
C	 0.738335	 -0.034840	 0.421385
H	 -0.814977	 -0.178223	 -1.064632
H	 -0.802730	 -1.495410	 0.071702
C	 1.822265	 -0.738362	 -0.399735
H	 0.853533	 1.043532	 0.342250
H	 0.871597	 -0.279636	 1.474438
C	 1.294316	 -1.622943	 -1.535051
H	 2.442814	 -1.338946	 0.263524
H	 2.479179	 0.016143	 -0.827524
C	 2.363958	 -2.100531	 -2.519012
H	 0.540549	 -1.064249	 -2.084584
H	 0.782897	 -2.484915	 -1.111190
H	 2.900959	 -1.259559	 -2.949751
H	 1.915245	 -2.657891	 -3.335616
H	 3.092077	 -2.749921	 -2.044354

20 16 13 17 F

13 10 7 11 F

11 7 4 3 F

1 2 3 5 F

7 4 3 2 F

