%nprocshared=1
%mem=2GB
#HF/6-31G* nosymm scf=tight 

Mol

0 1
H	 -1.070890	 -1.366565	 0.180696
O	 -1.422729	 -0.573567	 -0.196946
C	 -0.731407	 0.539437	 0.309156
C	 0.680193	 0.672443	 -0.251532
H	 -1.319765	 1.404033	 0.030086
H	 -0.700012	 0.506517	 1.397677
C	 0.987462	 -0.313513	 -1.378999
H	 0.816440	 1.689334	 -0.607926
H	 1.385744	 0.523271	 0.563014
H	 0.347240	 -0.143999	 -2.239566
H	 2.012923	 -0.210764	 -1.717879
H	 0.850287	 -1.341745	 -1.053138

1 2 3 4 F

