%nprocshared=1
%mem=2GB
#HF/6-31G* nosymm scf=tight 

Mol

0 1
O	 -0.682937	 1.318834	 -0.186099
C	 -0.860635	 0.152188	 -0.042321
C	 -2.173363	 -0.477127	 0.338347
O	 0.083258	 -0.765189	 -0.202595
H	 -2.477673	 -1.180929	 -0.427595
H	 -2.923125	 0.290956	 0.455536
H	 -2.058825	 -1.029004	 1.264191
C	 1.391937	 -0.334737	 -0.569838
C	 1.792114	 -0.870441	 -1.932015
H	 2.092638	 -0.639038	 0.192763
H	 1.329219	 0.743892	 -0.581036
H	 2.758360	 -0.465280	 -2.216520
H	 1.868033	 -1.950399	 -1.914836
H	 1.066323	 -0.580655	 -2.684123

8 4 2 1 F

