%nprocshared=24
%mem=2GB
#HF/6-31G* nosymm scf=tight 

Mol

0 1
H	 -2.455504	 -1.062989	 3.255514
C	 -2.425350	 -0.963885	 2.187839
C	 -1.271134	 -0.975404	 1.562018
H	 -3.351856	 -0.856911	 1.655811
O	 -0.924470	 -0.008146	 0.672581
H	 -0.527358	 -1.734539	 1.728471
C	 0.230328	 -0.185442	 -0.073648
C	 1.470442	 -0.108959	 0.788072
H	 0.324933	 0.547326	 -0.867244
H	 0.191543	 -1.172091	 -0.511262
F	 1.291881	 -0.833793	 1.882850
F	 2.533862	 -0.584065	 0.160983
F	 1.740578	 1.125708	 1.158225

11 8 7 9 F

3 5 7 9 F

6 3 5 7 F

