%nprocshared=1
%mem=2GB
#HF/6-31G* nosymm scf=tight 

Mol

0 1
O	 -2.324811	 1.361668	 -0.277141
C	 -2.105949	 0.203097	 -0.092081
C	 -0.889235	 -0.467034	 -0.705952
C	 -3.002726	 -0.644460	 0.782455
C	 -1.307507	 -1.622960	 -1.629005
H	 -0.282199	 -0.853478	 0.105512
H	 -0.294506	 0.253819	 -1.259751
C	 -0.102285	 -2.342216	 -2.239515
H	 -1.912741	 -2.313697	 -1.052846
H	 -1.940482	 -1.242270	 -2.429108
C	 -0.463868	 -3.460316	 -3.223978
H	 0.512387	 -2.752296	 -1.440303
H	 0.516962	 -1.612077	 -2.756505
C	 -1.177586	 -4.656306	 -2.591356
H	 0.451145	 -3.809000	 -3.696061
H	 -1.079595	 -3.051081	 -4.022410
H	 -0.588278	 -5.079001	 -1.782177
H	 -1.339063	 -5.439520	 -3.325454
H	 -2.147163	 -4.385009	 -2.187488
H	 -3.496582	 -1.399307	 0.176174
H	 -3.747939	 -0.023774	 1.260148
H	 -2.421318	 -1.168775	 1.535358

6 3 5 8 F

3 5 8 12 F

12 8 11 15 F

