%nprocshared=1
%mem=2GB
#HF/6-31G* nosymm scf=tight 

Mol

0 1
H	 2.652209	 0.763231	 0.000000
O	 2.263154	 -0.100023	 0.000000
C	 0.912879	 -0.015685	 0.000000
C	 0.350257	 1.235801	 0.214057
C	 0.099325	 -1.118410	 -0.203005
H	 0.998912	 2.077784	 0.369363
C	 -1.024245	 1.372454	 0.222997
H	 0.536513	 -2.088893	 -0.368988
C	 -1.279578	 -0.966719	 -0.191466
H	 -1.455091	 2.343760	 0.389196
C	 -1.850444	 0.274553	 0.020703
H	 -1.904057	 -1.827893	 -0.349883
H	 -2.918938	 0.388637	 0.029035
