%nprocshared=1
%mem=2GB
#HF/6-31G* nosymm scf=tight opt=ModRedundant

Mol

0 1
O	 -1.323000	 1.071000	 -0.790000
C	 -1.253000	 0.084000	 -0.130000
C	 -2.436000	 -0.653000	 0.437000
O	 -0.115000	 -0.509000	 0.199000
H	 -2.438000	 -1.676000	 0.077000
H	 -3.348000	 -0.155000	 0.145000
H	 -2.361000	 -0.687000	 1.518000
C	 1.123000	 0.052000	 -0.261000
C	 2.113000	 -1.098000	 -0.301000
C	 1.553000	 1.176000	 0.669000
H	 0.961000	 0.442000	 -1.255000
H	 1.762000	 -1.882000	 -0.961000
H	 3.075000	 -0.750000	 -0.664000
H	 2.252000	 -1.520000	 0.688000
H	 2.501000	 1.591000	 0.339000
H	 0.820000	 1.973000	 0.674000
H	 1.676000	 0.805000	 1.681000
