%nprocshared=1
%mem=2GB
#HF/6-31G* nosymm scf=tight 

Mol

0 1
H	 -3.135461	 -1.215070	 0.001379
O	 -2.310168	 -0.871793	 -0.309793
C	 -2.026376	 0.340750	 0.341611
C	 -0.673256	 0.843270	 -0.132153
H	 -2.792215	 1.080697	 0.115987
H	 -2.013526	 0.200402	 1.421792
C	 0.486613	 -0.083066	 0.235839
H	 -0.715586	 0.970948	 -1.210718
H	 -0.508072	 1.829858	 0.297090
C	 1.840406	 0.433480	 -0.254303
H	 0.300215	 -1.068318	 -0.178947
H	 0.519509	 -0.203625	 1.318070
C	 2.606778	 1.206209	 0.818654
H	 2.443864	 -0.405903	 -0.593410
H	 1.692667	 1.072948	 -1.122460
H	 2.800494	 0.582316	 1.686480
H	 3.563092	 1.558189	 0.443795
H	 2.044187	 2.072766	 1.154928

10 7 4 8 F

2 3 4 8 F

1 2 3 4 F

