%nprocshared=1
%mem=2GB
#HF/6-31G* nosymm scf=tight 

Mol

0 1
H	 1.148083	 -1.049780	 0.784252
O	 1.319262	 -0.618148	 -0.041729
C	 0.709265	 0.639550	 -0.033818
C	 0.890775	 1.421541	 -1.308229
H	 1.149930	 1.184160	 0.793477
H	 -0.354854	 0.552190	 0.183079
C	 1.678509	 1.077565	 -2.307188
H	 0.315248	 2.332329	 -1.369193
H	 2.279686	 0.187147	 -2.272961
H	 1.759310	 1.685051	 -3.190596

5 3 4 7 F

3 4 7 9 F

