%nprocshared=1
%mem=2GB
#HF/6-31G* nosymm scf=tight 

Mol

0 1
H	 1.149201	 1.082076	 1.756497
C	 0.226047	 1.190795	 1.203983
O	 0.000000	 0.000000	 0.521119
H	 -0.579549	 1.408462	 1.903501
H	 0.322693	 2.031376	 0.518584
C	 -1.165642	 0.000000	 -0.238270
H	 -1.228672	 0.883184	 -0.872070
H	 -2.003012	 0.000000	 0.445920
H	 -1.228672	 -0.883184	 -0.872070
