%nprocshared=1
%mem=2GB
#HF/6-31G* nosymm scf=tight 

Mol

0 1
H	 2.332609	 0.878551	 -1.051851
C	 2.357710	 0.000000	 -0.417167
C	 1.175432	 0.000000	 0.532082
H	 3.291263	 0.000000	 0.136880
H	 2.332609	 -0.878551	 -1.051851
O	 0.000000	 0.000000	 -0.221444
H	 1.206604	 0.877321	 1.177902
H	 1.206604	 -0.877321	 1.177902
C	 -1.175432	 0.000000	 0.532082
C	 -1.460554	 1.419454	 0.982314
H	 -1.067863	 -0.657809	 1.394325
H	 -2.003130	 -0.382919	 -0.064606
H	 -0.642079	 1.796158	 1.585222
H	 -2.370764	 1.456388	 1.572775
H	 -1.578657	 2.071433	 0.124246
