%nprocshared=1
%mem=2GB
#HF/6-31G* nosymm scf=tight 

Mol

0 1
O	 -2.042549	 -1.228399	 -0.269030
C	 -1.653912	 -0.146171	 0.050137
C	 -0.332303	 0.024011	 0.778412
C	 -2.438579	 1.106236	 -0.272369
C	 0.845713	 -0.001731	 -0.208243
H	 -0.323783	 0.953829	 1.340327
H	 -0.235459	 -0.796807	 1.480410
C	 0.647080	 -1.015296	 -1.336188
H	 1.766538	 -0.233755	 0.324044
H	 0.969683	 0.993158	 -0.625340
C	 -0.734728	 -0.918370	 -1.981493
H	 1.412260	 -0.866481	 -2.094989
H	 0.794263	 -2.019221	 -0.944984
H	 -0.898843	 0.065171	 -2.412498
H	 -1.520406	 -1.095179	 -1.252870
H	 -0.848220	 -1.650103	 -2.775038
H	 -3.277823	 0.863061	 -0.908988
H	 -1.806773	 1.843019	 -0.759671
H	 -2.802853	 1.554979	 0.648059

11 8 5 9 F

5 3 2 4 F

