%nprocshared=1
%mem=2GB
#HF/6-31G* nosymm scf=tight 

Mol

0 1
H	 -2.499100	 -0.730091	 -0.745082
O	 -2.347518	 -0.290803	 0.079804
C	 -1.184022	 0.487508	 -0.006784
C	 0.062599	 -0.378592	 0.031606
H	 -1.176523	 1.099369	 -0.904519
H	 -1.187323	 1.153111	 0.844927
O	 0.125638	 -0.986655	 1.283031
H	 0.949627	 0.233692	 -0.142381
H	 0.017121	 -1.119791	 -0.764095
C	 1.209110	 -1.844530	 1.454146
H	 2.155083	 -1.317268	 1.345706
H	 1.148070	 -2.252615	 2.453468
H	 1.185469	 -2.662161	 0.736711

1 2 3 5 F

10 7 4 8 F

4 7 10 13 F

