%nprocshared=1
%mem=2GB
#HF/6-31G* nosymm scf=tight 

Mol

0 1
H	 0.525169	 -4.114266	 -1.296593
O	 -0.014055	 -3.860662	 -2.032331
C	 -1.209233	 -3.292490	 -1.567878
C	 -0.945615	 -2.267457	 -0.479081
H	 -1.774566	 -2.832663	 -2.373679
H	 -1.805632	 -4.099814	 -1.166646
O	 -0.043959	 -1.331029	 -0.978982
H	 -0.537243	 -2.758271	 0.406535
H	 -1.881889	 -1.795354	 -0.187373
C	 -0.381609	 -0.813417	 -2.226865
H	 0.366496	 -0.106062	 -2.579876
H	 -0.435693	 -1.641239	 -2.920182
H	 -1.346371	 -0.311084	 -2.200645

8 4 3 5 F

1 2 3 5 F

10 7 4 8 F

