%nprocshared=1
%mem=2GB
#HF/6-31G* nosymm scf=tight 

Mol

0 1
H	 -3.088710	 1.610815	 0.894091
O	 -2.301206	 2.052542	 1.181438
C	 -1.341858	 1.979657	 0.167386
C	 -0.795902	 0.595680	 -0.067389
H	 -0.537355	 2.642991	 0.463975
H	 -1.738129	 2.370842	 -0.769080
C	 -1.522220	 -0.487727	 -0.255690
H	 0.280942	 0.525875	 -0.071395
H	 -1.071454	 -1.449856	 -0.418625
H	 -2.596511	 -0.445958	 -0.267127

5 3 2 1 F

5 3 4 7 F

