%nprocshared=1
%mem=2GB
#HF/6-31G* nosymm scf=tight 

Mol

0 1
H	 0.892894	 -0.753294	 2.149922
C	 -0.056012	 -0.828979	 1.636936
O	 0.000000	 0.000000	 0.521119
H	 -0.221768	 -1.867411	 1.354317
H	 -0.849870	 -0.527254	 2.318436
C	 -1.165642	 0.000000	 -0.238270
H	 -1.228672	 0.883184	 -0.872070
H	 -2.003012	 0.000000	 0.445920
H	 -1.228672	 -0.883184	 -0.872070
