%nprocshared=1
%mem=2GB
#HF/6-31G* nosymm scf=tight 

Mol

0 1
H	 -1.997449	 1.469227	 -0.018135
N	 -1.570087	 0.601332	 0.240892
C	 -0.125004	 0.683477	 0.122184
H	 -1.917302	 -0.100597	 -0.383485
C	 0.270407	 0.758205	 -1.337679
H	 0.310064	 1.539109	 0.640462
H	 0.309993	 -0.213462	 0.552369
O	 -0.088814	 -0.446451	 -1.951562
H	 -0.236995	 1.591600	 -1.823100
H	 1.343437	 0.917432	 -1.418234
C	 0.295968	 -0.548357	 -3.285402
H	 1.077210	 -1.293847	 -3.345427
H	 -0.534823	 -0.858547	 -3.916710
H	 0.680852	 0.397273	 -3.661511

8 5 3 6 F

6 3 2 4 F

11 8 5 3 F

