%nprocshared=1
%mem=2GB
#HF/6-31G* nosymm scf=tight 

Mol

0 1
O	 -1.292816	 -1.311544	 -1.940699
C	 -0.531882	 -1.243214	 -1.029626
C	 0.731070	 -2.058266	 -0.885038
O	 -0.698257	 -0.426125	 0.001050
C	 0.962323	 -3.013407	 -2.049166
H	 0.666707	 -2.592803	 0.058029
H	 1.556796	 -1.361565	 -0.775276
H	 0.144225	 -3.716959	 -2.144525
H	 1.878940	 -3.573313	 -1.897069
H	 1.042691	 -2.474564	 -2.985389
C	 -1.853104	 0.406779	 0.000512
C	 -3.066105	 -0.499277	 -0.000959
H	 -1.828410	 1.043074	 -0.873618
H	 -1.829857	 1.042383	 0.875188
H	 -3.071820	 -1.133106	 -0.880383
H	 -3.972708	 0.097145	 -0.001528
H	 -3.073405	 -1.133813	 0.877999

4 2 3 6 F

11 4 2 3 F

