%nprocshared=1
%mem=2GB
#HF/6-31G* nosymm scf=tight 

Mol

0 1
H	 -5.828681	 -2.088815	 0.023923
C	 -5.800690	 -0.992338	 -0.000060
C	 -4.497408	 -0.398263	 -0.470317
O	 -6.752831	 -0.363240	 0.330716
C	 -4.015009	 0.748661	 0.428634
H	 -3.762228	 -1.192212	 -0.532478
H	 -4.664165	 -0.018024	 -1.477425
C	 -4.902224	 1.994114	 0.357958
H	 -3.977414	 0.390188	 1.453021
H	 -2.992268	 1.010857	 0.162155
C	 -6.253274	 1.803461	 1.050150
H	 -5.062659	 2.258041	 -0.685331
H	 -4.386047	 2.840886	 0.806374
C	 -7.144331	 3.045428	 0.963640
H	 -6.759475	 0.950440	 0.605350
H	 -6.089580	 1.551128	 2.097010
C	 -8.476090	 2.930578	 1.714174
H	 -7.340708	 3.275648	 -0.082366
H	 -6.595566	 3.895780	 1.362978
C	 -9.441535	 1.892099	 1.140506
H	 -8.962502	 3.902772	 1.700334
H	 -8.281521	 2.704290	 2.760528
H	 -9.641833	 2.084110	 0.089658
H	 -9.050397	 0.883621	 1.223924
H	 -10.390864	 1.916855	 1.666962

6 3 5 8 F

6 3 2 4 F

12 8 11 14 F

8 11 14 18 F

20 17 14 18 F

