%nprocshared=1
%mem=2GB
#HF/6-31G* nosymm scf=tight 

Mol

0 1
H	 2.344243	 -2.033694	 0.249540
N	 1.357531	 -1.867170	 0.255010
C	 0.908732	 -1.433643	 -1.055465
C	 1.011638	 -0.900641	 1.281115
H	 1.171164	 -2.191560	 -1.785849
H	 1.369990	 -0.492849	 -1.364965
C	 -0.601388	 -1.251133	 -1.029827
H	 1.348592	 -1.272569	 2.242833
H	 1.479129	 0.072435	 1.113135
C	 -0.498546	 -0.718461	 1.305306
H	 -1.075748	 -2.223947	 -0.869470
H	 -0.937844	 -0.873404	 -1.989861
N	 -0.975995	 -0.298722	 0.000000
H	 -0.760733	 0.043946	 2.031626
H	 -0.966016	 -1.655588	 1.622108
C	 -2.393863	 -0.024976	 0.000000
H	 -2.854032	 -0.467193	 -0.876721
H	 -2.854032	 -0.467193	 0.876721
H	 -2.623281	 1.044943	 0.000000
