%nprocshared=1
%mem=2GB
#HF/6-31G* nosymm scf=tight 

Mol

0 1
O	 -0.000572	 0.607213	 1.682316
C	 -0.294084	 -0.236670	 0.899317
C	 -1.647456	 -0.883759	 0.788736
O	 0.550821	 -0.724572	 0.000672
H	 -2.050085	 -0.722814	 -0.204577
H	 -2.310978	 -0.463963	 1.529952
H	 -1.554559	 -1.953444	 0.936125
C	 1.863949	 -0.193559	 -0.000319
H	 2.028859	 0.409284	 -0.881648
H	 2.526261	 -1.045082	 -0.000003
H	 2.029520	 0.410555	 0.880008

8 4 2 1 F

