%nprocshared=1
%mem=2GB
#HF/6-31G* nosymm scf=tight 

Mol

0 1
O	 0.096868	 1.228463	 0.278581
C	 0.028650	 0.075053	 -0.000277
C	 -1.233602	 -0.752807	 0.000328
O	 1.080376	 -0.650989	 -0.356135
C	 -2.501530	 0.091881	 0.000126
H	 -1.193807	 -1.406641	 -0.865785
H	 -1.193516	 -1.405779	 0.867015
H	 -2.545121	 0.729328	 -0.874513
H	 -3.377167	 -0.548497	 0.000561
H	 -2.544818	 0.730135	 0.874258
C	 2.332834	 0.008803	 -0.396269
H	 2.311011	 0.822032	 -1.107322
H	 3.049480	 -0.737035	 -0.702876
H	 2.589495	 0.396381	 0.579118

11 4 2 3 F

