%nprocshared=1
%mem=2GB
#HF/6-31G* nosymm scf=tight 

Mol

0 1
H	 -0.801333	 -1.875213	 0.472179
C	 -1.400170	 -0.990346	 0.283116
N	 -0.528168	 0.128977	 -0.000000
H	 -1.977663	 -0.785373	 1.177277
H	 -2.094843	 -1.225989	 -0.527544
C	 0.248044	 -0.037491	 -1.209632
H	 -1.065898	 0.970819	 -0.056366
H	 0.998722	 0.743888	 -1.266824
H	 -0.398417	 0.061950	 -2.074060
H	 0.763621	 -0.999315	 -1.275517
