%nprocshared=1
%mem=2GB
#HF/6-31G* nosymm scf=tight 

Mol

0 1
H	 -3.571158	 0.540474	 0.139285
O	 -3.106200	 -0.271124	 -0.011510
C	 -1.775819	 -0.076055	 -0.001477
C	 -0.889886	 -0.977168	 -0.584672
C	 -1.303750	 1.073263	 0.620043
H	 -1.264054	 -1.865537	 -1.064370
C	 0.465341	 -0.725139	 -0.543948
H	 -2.006920	 1.752946	 1.062598
C	 0.054435	 1.311398	 0.652593
H	 1.160238	 -1.411734	 -0.989825
C	 0.953886	 0.421160	 0.074588
H	 0.420780	 2.201901	 1.134109
C	 2.404823	 0.689430	 0.117297
O	 2.895493	 1.716492	 0.471057
H	 3.038078	 -0.142630	 -0.208019

7 11 13 14 F

