%nprocshared=1
%mem=2GB
#HF/6-31G* nosymm scf=tight 
prop=(read,field)

Mol

0 1
H	 -0.000158	 1.970426	 0.756896
O	 -0.000074	 1.880134	 -0.189225
C	 -0.000015	 0.544775	 -0.545061
C	 -1.278788	 -0.123892	 -0.051491
C	 1.278802	 -0.123790	 -0.051455
H	 -0.000001	 0.490705	 -1.623569
F	 -2.323342	 0.466213	 -0.592072
F	 -1.326002	 -1.401720	 -0.363397
F	 -1.389099	 -0.015556	 1.262926
F	 2.323327	 0.466572	 -0.591804
F	 1.326242	 -1.401555	 -0.363617
F	 1.388946	 -0.015704	 1.262989

@grid.dat /N
