%nprocshared=1
%mem=2GB
#HF/6-31G* nosymm scf=tight 

Mol

0 1
O	 -0.309107	 4.495657	 2.030867
C	 -0.108065	 4.197816	 0.893488
C	 -0.321706	 2.786514	 0.376262
C	 0.377521	 5.218375	 -0.115384
C	 -0.809194	 1.803009	 1.436124
H	 -1.025610	 2.838694	 -0.453308
H	 0.615739	 2.446758	 -0.062105
C	 -1.013070	 0.393374	 0.878337
H	 -1.738068	 2.169762	 1.861347
H	 -0.094807	 1.777165	 2.252905
C	 -2.259874	 0.272531	 0.000494
H	 -0.137792	 0.101207	 0.299914
H	 -1.083886	 -0.316500	 1.701216
C	 -2.299309	 1.292585	 -1.138781
H	 -3.147812	 0.390529	 0.619090
H	 -2.310745	 -0.732260	 -0.415202
C	 -3.566352	 2.147124	 -1.131721
H	 -1.427462	 1.940154	 -1.072741
H	 -2.220829	 0.772174	 -2.091079
H	 -3.656394	 2.706940	 -0.205088
H	 -3.564796	 2.860504	 -1.950126
H	 -4.455333	 1.530813	 -1.231810
H	 -0.327316	 5.303869	 -0.937280
H	 0.490780	 6.180487	 0.364562
H	 1.329290	 4.909864	 -0.537983

9 5 8 12 F

15 11 8 12 F

1 2 3 6 F

9 5 3 6 F

