%nprocshared=1
%mem=2GB
#HF/6-31G* nosymm scf=tight 

Mol

0 1
H	 2.451652	 -2.178703	 0.543297
O	 2.773837	 -1.297590	 0.410870
C	 1.759943	 -0.431505	 0.213148
C	 0.490378	 -0.967525	 0.021238
C	 1.943512	 0.937494	 0.196529
H	 0.373632	 -2.034730	 0.038560
C	 -0.588122	 -0.132714	 -0.186113
H	 2.910361	 1.377595	 0.341584
C	 0.838643	 1.746588	 -0.014307
H	 -1.564753	 -0.555037	 -0.333399
C	 -0.429524	 1.246505	 -0.207220
N	 1.038361	 3.194111	 -0.030949
H	 -1.256427	 1.906913	 -0.366898
O	 2.101931	 3.610788	 0.317233
O	 0.127928	 3.875015	 -0.391152

11 9 12 14 F

