%nprocshared=1
%mem=2GB
#HF/6-31G* nosymm scf=tight 

Mol

0 1
O	 0.404574	 0.706458	 -1.875956
C	 0.788116	 1.716284	 -1.379704
C	 1.498024	 1.828463	 -0.052559
O	 0.640172	 2.906476	 -1.947763
C	 2.622152	 0.811761	 0.121506
H	 1.870671	 2.845720	 0.031329
H	 0.748043	 1.723516	 0.726693
C	 3.621567	 0.847713	 -1.035619
H	 2.194887	 -0.182185	 0.209277
H	 3.135493	 1.003126	 1.058613
C	 3.071334	 0.225732	 -2.320236
H	 3.912738	 1.878361	 -1.233054
H	 4.532090	 0.325096	 -0.746308
C	 1.740998	 0.837774	 -2.757115
H	 2.946425	 -0.845124	 -2.175995
H	 3.802034	 0.342597	 -3.117455
H	 0.979114	 0.706212	 -1.993938
H	 1.377215	 0.376544	 -3.670011
H	 1.841444	 1.903548	 -2.942447
C	 1.792514	 3.724689	 -2.034891
H	 2.180449	 3.940881	 -1.049855
H	 1.472688	 4.634305	 -2.518819
H	 2.560106	 3.239076	 -2.620117

15 11 8 12 F

9 5 8 12 F

1 2 3 6 F

9 5 3 6 F

