%nprocshared=1
%mem=2GB
#HF/6-31G* nosymm scf=tight 

Mol

0 1
O	 1.344875	 0.504029	 -4.708299
C	 0.611833	 1.280934	 -4.175850
C	 0.375839	 1.226656	 -2.676628
C	 -0.089701	 2.371801	 -4.953818
C	 -0.444065	 -0.016589	 -2.295521
H	 -0.171254	 2.120495	 -2.397264
H	 1.320710	 1.226959	 -2.140676
C	 0.149006	 -1.302371	 -2.876593
H	 -0.490572	 -0.072401	 -1.213806
H	 -1.467792	 0.097219	 -2.648759
C	 0.075323	 -1.399736	 -4.404711
H	 -0.356724	 -2.160254	 -2.437274
H	 1.191726	 -1.375416	 -2.574521
C	 -1.053427	 -2.288511	 -4.930067
H	 1.023541	 -1.787350	 -4.768483
H	 -0.024340	 -0.400645	 -4.824201
H	 -0.984148	 -3.291584	 -4.518035
H	 -1.004790	 -2.372263	 -6.011279
H	 -2.032469	 -1.894716	 -4.678683
H	 -1.162115	 2.195449	 -4.944155
H	 0.262990	 2.383176	 -5.975710
H	 0.079348	 3.341316	 -4.494179

6 3 2 1 F

6 3 5 8 F

3 5 8 12 F

