%nprocshared=1
%mem=2GB
#HF/6-31G* nosymm scf=tight 

Mol

0 1
H	 3.302973	 -0.411670	 0.003647
C	 2.242404	 -0.233868	 0.002863
C	 1.365620	 -1.291240	 -0.207077
C	 1.759025	 1.047143	 0.211034
H	 1.748538	 -2.282716	 -0.367935
C	 0.003009	 -1.066407	 -0.208711
H	 2.440286	 1.862538	 0.373083
C	 0.391811	 1.271394	 0.209162
H	 -0.691228	 -1.869820	 -0.369066
C	 -0.488460	 0.219100	 0.000000
H	 0.009969	 2.264945	 0.370412
C	 -1.949954	 0.470334	 0.000000
O	 -2.781584	 -0.381627	 0.000000
H	 -2.238022	 1.526388	 0.000000
