%nprocshared=1
%mem=2GB
#HF/6-31G* nosymm scf=tight 

Mol

0 1
H	 -0.367348	 2.047014	 -0.308205
C	 0.352277	 1.337084	 0.083769
N	 -0.000016	 0.000074	 -0.335546
H	 1.328359	 1.600444	 -0.307950
H	 0.381933	 1.450534	 1.172486
C	 -1.049296	 0.004770	 -1.329154
C	 1.154608	 -0.750603	 -0.773135
H	 -1.335734	 -1.013605	 -1.566257
H	 -1.922837	 0.514978	 -0.939184
H	 -0.754974	 0.499826	 -2.260378
H	 1.889748	 -0.791957	 0.022624
H	 0.863550	 -1.767383	 -1.011632
H	 1.635936	 -0.319382	 -1.657047
