%nprocshared=1
%mem=2GB
#HF/6-31G* nosymm scf=tight 

Mol

0 1
H	 -1.836216	 1.387520	 -0.000064
C	 -1.301823	 0.443321	 -0.000031
O	 -0.003969	 0.658512	 0.000451
O	 -1.829879	 -0.616434	 -0.000857
C	 0.448232	 1.940662	 0.434953
C	 0.021990	 2.950116	 -0.608906
H	 1.523064	 1.910736	 0.549665
H	 0.014142	 2.154623	 1.401949
H	 0.459658	 2.715487	 -1.572456
H	 0.348106	 3.942586	 -0.315847
H	 -1.056561	 2.960674	 -0.716170

7 5 3 2 F

