%nprocshared=1
%mem=2GB
#HF/6-31G* nosymm scf=tight 

Mol

0 1
H	 3.209891	 1.140281	 -0.728547
C	 2.496789	 0.935652	 0.061731
C	 1.322923	 0.120767	 -0.479465
H	 3.019307	 0.402345	 0.849723
H	 2.164769	 1.888150	 0.463109
C	 0.306652	 -0.176050	 0.621399
H	 1.678839	 -0.818112	 -0.890873
H	 0.826579	 0.660010	 -1.277664
N	 -1.068537	 -0.011044	 0.085269
H	 0.372515	 -1.192590	 0.973735
H	 0.391664	 0.520566	 1.441230
O	 -1.656956	 -0.997225	 -0.235017
O	 -1.478635	 1.104830	 -0.018026

12 9 6 3 F

