%nprocshared=1
%mem=2GB
#HF/6-31G* nosymm scf=tight 

Mol

0 1
H	 -3.161837	 0.500524	 -0.000234
C	 -2.367097	 -0.232926	 -0.000000
O	 -1.158440	 0.455814	 -0.000122
H	 -2.468853	 -0.861886	 -0.882833
H	 -2.468942	 -0.861421	 0.883154
C	 -0.070345	 -0.294041	 -0.449165
C	 1.176264	 0.572005	 -0.398243
H	 -0.248641	 -0.641535	 -1.467673
H	 0.058183	 -1.179707	 0.174521
C	 2.423671	 -0.170642	 -0.875035
H	 1.008222	 1.453471	 -1.009340
H	 1.312985	 0.919049	 0.621349
H	 2.316884	 -0.505720	 -1.903015
H	 3.297632	 0.470298	 -0.827766
H	 2.623472	 -1.044474	 -0.261111

11 7 6 8 F

8 6 3 2 F

