%nprocshared=1
%mem=2GB
#HF/6-31G* nosymm scf=tight 

Mol

0 1
H	 -1.533601	 -0.265794	 0.065598
N	 -0.626943	 -0.667432	 -0.000092
C	 -0.392777	 -1.663235	 -1.021003
C	 0.325755	 -0.252874	 0.869779
H	 -1.324077	 -1.969876	 -1.485393
H	 0.065553	 -2.520932	 -0.556227
H	 0.270997	 -1.282902	 -1.790277
C	 1.674978	 -0.919497	 0.690344
O	 0.127974	 0.574320	 1.716447
H	 2.068026	 -0.726742	 -0.302990
H	 2.359261	 -0.526889	 1.427442
H	 1.590945	 -1.994555	 0.814939

4 2 3 5 F

