%nprocshared=1
%mem=2GB
#HF/6-31G* nosymm scf=tight 

Mol

0 1
O	 0.465326	 0.712019	 -1.988230
C	 0.140502	 1.681556	 -1.381988
C	 -0.103806	 1.745957	 0.105983
O	 -0.054281	 2.863688	 -1.952602
C	 0.989286	 1.072021	 0.929574
H	 -0.207994	 2.794152	 0.372792
H	 -1.074117	 1.295048	 0.295539
C	 2.384124	 1.595622	 0.583688
H	 0.948705	 -0.000906	 0.769311
H	 0.789421	 1.226845	 1.985314
C	 2.888293	 1.083447	 -0.764827
H	 2.371858	 2.683663	 0.574109
H	 3.084954	 1.305839	 1.364030
H	 2.226477	 1.386490	 -1.570941
H	 3.878419	 1.469444	 -0.986037
H	 2.945255	 -0.001121	 -0.775162
C	 1.065166	 3.726192	 -2.042424
H	 1.444631	 3.960080	 -1.058153
H	 0.709774	 4.621320	 -2.528624
H	 1.850932	 3.269393	 -2.626729

9 5 8 12 F

1 2 3 6 F

9 5 3 6 F

