%nprocshared=1
%mem=2GB
#HF/6-31G* nosymm scf=tight 

Mol

0 1
H	 -0.821032	 -1.655889	 0.000000
O	 -1.037828	 -0.728600	 0.000000
C	 0.100509	 -0.036935	 0.000000
C	 0.023743	 1.166001	 -0.896078
O	 1.042496	 -0.363310	 0.644486
H	 -0.197474	 0.851998	 -1.909577
H	 0.962529	 1.698047	 -0.868563
H	 -0.781616	 1.813375	 -0.568938
