%nprocshared=1
%mem=2GB
#HF/6-31G* nosymm scf=tight 

Mol

0 1
H	 -2.798360	 -0.862255	 -0.071053
N	 -1.863561	 -0.715187	 0.256814
C	 -1.344686	 0.554728	 -0.219830
H	 -1.300452	 -1.461917	 -0.101532
C	 -0.262860	 0.316431	 -1.252303
H	 -2.104358	 1.201576	 -0.660839
H	 -0.909583	 1.088713	 0.619412
O	 0.813779	 -0.316010	 -0.621466
H	 -0.643748	 -0.308984	 -2.059408
H	 0.053647	 1.266807	 -1.676383
C	 1.920390	 -0.519772	 -1.440895
H	 2.680356	 -1.012047	 -0.849445
H	 1.674083	 -1.151470	 -2.292524
H	 2.318064	 0.421992	 -1.813381

8 5 3 6 F

5 8 11 13 F

11 8 5 3 F

