%nprocshared=1
%mem=2GB
#HF/6-31G* nosymm scf=tight 

Mol

0 1
H	 -0.943502	 -0.276034	 -3.365583
O	 -0.948274	 0.065445	 -2.482818
C	 -1.177237	 -0.979964	 -1.573265
C	 -1.177863	 -0.397191	 -0.171080
H	 -2.132120	 -1.462697	 -1.776916
H	 -0.402324	 -1.740377	 -1.660568
C	 0.198102	 0.111031	 0.262842
H	 -1.528637	 -1.161767	 0.516749
H	 -1.903953	 0.410333	 -0.136790
C	 1.331804	 -0.827780	 -0.158768
H	 0.361943	 1.100838	 -0.156218
H	 0.217265	 0.229072	 1.345532
C	 2.723619	 -0.410569	 0.329459
H	 1.342964	 -0.912588	 -1.244120
H	 1.116806	 -1.824343	 0.220779
C	 3.243875	 0.895854	 -0.272975
H	 3.424222	 -1.207124	 0.091250
H	 2.714788	 -0.329854	 1.414619
H	 3.251977	 0.848779	 -1.358681
H	 2.637085	 1.747371	 0.016682
H	 4.259473	 1.094070	 0.055697

2 3 4 8 F

4 7 10 14 F

16 13 10 14 F

1 2 3 5 F

