%nprocshared=1
%mem=2GB
#HF/6-31G* nosymm scf=tight 

Mol

0 1
H	 2.332609	 0.878551	 -1.051851
C	 2.357710	 0.000000	 -0.417167
C	 1.175432	 0.000000	 0.532082
H	 3.291263	 0.000000	 0.136880
H	 2.332609	 -0.878551	 -1.051851
O	 0.000000	 0.000000	 -0.221444
H	 1.206604	 0.877321	 1.177902
H	 1.206604	 -0.877321	 1.177902
C	 -1.175432	 0.000000	 0.532082
C	 -2.306257	 -0.514735	 -0.336905
H	 -1.395044	 1.007822	 0.883953
H	 -1.055889	 -0.630424	 1.413003
H	 -2.432327	 0.119022	 -1.207402
H	 -3.238471	 -0.528128	 0.219230
H	 -2.092697	 -1.521521	 -0.677610
