%nprocshared=1
%mem=2GB
#HF/6-31G* nosymm scf=tight 

Mol

0 1
H	 -0.723983	 1.568860	 0.398902
C	 -1.765798	 1.907876	 0.456463
C	 -2.699664	 0.976399	 1.186432
O	 -2.085944	 2.940434	 -0.036569
C	 -4.015009	 0.748661	 0.428634
H	 -2.178578	 0.043859	 1.369589
H	 -2.916755	 1.432697	 2.151481
C	 -4.902224	 1.994114	 0.357958
H	 -3.778905	 0.416349	 -0.577899
H	 -4.564330	 -0.067400	 0.895591
C	 -6.253274	 1.803461	 1.050150
H	 -5.062659	 2.258041	 -0.685331
H	 -4.386047	 2.840886	 0.806374
C	 -7.144331	 3.045428	 0.963640
H	 -6.759475	 0.950440	 0.605350
H	 -6.089580	 1.551128	 2.097010
C	 -8.476090	 2.930578	 1.714174
H	 -7.340708	 3.275648	 -0.082366
H	 -6.595566	 3.895780	 1.362978
C	 -9.441535	 1.892099	 1.140506
H	 -8.962502	 3.902772	 1.700334
H	 -8.281521	 2.704290	 2.760528
H	 -9.641833	 2.084110	 0.089658
H	 -9.050397	 0.883621	 1.223924
H	 -10.390864	 1.916855	 1.666962

6 3 5 8 F

6 3 2 4 F

12 8 11 14 F

8 11 14 18 F

20 17 14 18 F

