%nprocshared=1
%mem=2GB
#HF/6-31G* nosymm scf=tight 

Mol

0 1
H	 -2.798360	 -0.862255	 -0.071053
N	 -1.863561	 -0.715187	 0.256814
C	 -1.344686	 0.554728	 -0.219830
H	 -1.300452	 -1.461917	 -0.101532
C	 0.068734	 0.757699	 0.284333
H	 -1.338440	 0.646160	 -1.306846
H	 -1.968599	 1.352935	 0.170528
O	 0.025410	 0.869243	 1.678165
H	 0.696261	 -0.085192	 -0.004429
H	 0.487014	 1.661270	 -0.153657
C	 1.254342	 1.145436	 2.270630
H	 1.097099	 1.206889	 3.338897
H	 1.979869	 0.359865	 2.066981
H	 1.661710	 2.091027	 1.918893

8 5 3 6 F

5 8 11 13 F

11 8 5 3 F

