%nprocshared=1
%mem=2GB
#HF/6-31G* nosymm scf=tight 

Mol

0 1
O	 -1.296891	 -1.006058	 0.270516
C	 -0.451170	 -1.129930	 1.097049
C	 0.801727	 -1.959116	 0.945507
O	 -0.500548	 -0.544933	 2.285723
C	 1.124911	 -2.785238	 2.184071
H	 1.613075	 -1.280220	 0.700432
H	 0.669725	 -2.590969	 0.072237
H	 1.272053	 -2.149836	 3.048928
H	 2.030738	 -3.360307	 2.024106
H	 0.320287	 -3.472711	 2.414906
C	 -1.631722	 0.271579	 2.570601
C	 -1.539909	 1.498168	 1.687788
H	 -1.622600	 0.532799	 3.620013
H	 -2.532787	 -0.294142	 2.376609
H	 -0.629556	 2.050762	 1.890411
H	 -2.386582	 2.151120	 1.873386
H	 -1.544778	 1.219407	 0.640160

2 4 11 13 F

11 4 2 3 F

