%nprocshared=1
%mem=2GB
#HF/6-31G* nosymm scf=tight 
prop=(read,field)

Mol

0 1
H	 -2.128177	 0.070295	 0.000000
C	 -1.211606	 -0.483587	 0.000000
C	 -1.203612	 -1.866849	 0.000000
C	 0.000000	 0.183666	 0.000000
H	 -2.133896	 -2.404006	 -0.000000
C	 0.000000	 -2.555298	 0.000000
N	 -0.000000	 1.642464	 0.000000
C	 1.211606	 -0.483588	 0.000000
H	 0.000000	 -3.630194	 0.000000
C	 1.203612	 -1.866849	 0.000000
O	 1.057097	 2.197195	 -0.000000
O	 -1.057097	 2.197195	 0.000000
H	 2.128177	 0.070295	 0.000000
H	 2.133896	 -2.404006	 0.000000

@grid.dat /N
