%nprocshared=1
%mem=2GB
#HF/6-31G* nosymm scf=tight 

Mol

0 1
H	 0.162380	 -3.071547	 4.309614
C	 0.507555	 -2.556172	 3.431938
C	 -0.054452	 -2.825695	 2.188664
C	 1.514580	 -1.617304	 3.520702
H	 -0.840500	 -3.554520	 2.100515
C	 0.385561	 -2.166844	 1.061055
H	 1.961035	 -1.395870	 4.473976
C	 1.969989	 -0.943647	 2.392320
H	 -0.039713	 -2.365376	 0.094845
C	 1.402947	 -1.219894	 1.158128
H	 2.754495	 -0.219141	 2.493854
O	 1.765256	 -0.628444	 0.000000
C	 2.778419	 0.335181	 0.000000
H	 2.731280	 0.961222	 -0.884976
H	 3.711703	 -0.207767	 0.000000
H	 2.731280	 0.961222	 0.884976

13 12 10 8 F

