%nprocshared=1
%mem=2GB
#HF/6-31G* nosymm scf=tight 

Mol

0 1
O	 -1.276010	 1.052711	 -0.768302
C	 -1.204840	 0.067374	 -0.106123
C	 -2.388195	 -0.672128	 0.458071
O	 -0.067104	 -0.527208	 0.221609
H	 -2.388023	 -1.694060	 0.097175
H	 -3.300579	 -0.174919	 0.164318
H	 -2.315377	 -0.706351	 1.539059
C	 -0.092672	 -1.900882	 0.634276
C	 -0.851658	 -2.647403	 -0.448422
C	 -0.743823	 -2.013821	 2.003909
H	 0.927758	 -2.251123	 0.684869
H	 -0.364127	 -2.528246	 -1.409339
H	 -0.892859	 -3.705986	 -0.213820
H	 -1.866915	 -2.274581	 -0.531548
H	 -0.787058	 -3.053670	 2.311901
H	 -0.176480	 -1.465503	 2.745155
H	 -1.756078	 -1.623231	 1.975841

11 8 4 2 F

