%nprocshared=1
%mem=2GB
#HF/6-31G* nosymm scf=tight 

Mol

0 1
O	 -2.042549	 -1.228399	 -0.269030
C	 -1.653912	 -0.146171	 0.050137
C	 -0.332303	 0.024011	 0.778412
C	 -2.438579	 1.106236	 -0.272369
C	 0.845713	 -0.001731	 -0.208243
H	 -0.323783	 0.953829	 1.340327
H	 -0.235459	 -0.796807	 1.480410
C	 0.418256	 -0.384769	 -1.625844
H	 1.602023	 -0.703085	 0.139866
H	 1.311474	 0.979153	 -0.216893
C	 -0.808301	 0.391504	 -2.103511
H	 1.245050	 -0.213100	 -2.311676
H	 0.207703	 -1.451099	 -1.660130
H	 -0.617295	 1.460842	 -2.112758
H	 -1.661157	 0.213730	 -1.455069
H	 -1.090186	 0.097394	 -3.109526
H	 -3.277823	 0.863061	 -0.908988
H	 -1.806773	 1.843019	 -0.759671
H	 -2.802853	 1.554979	 0.648059

11 8 5 9 F

5 3 2 4 F

