%nprocshared=1
%mem=2GB
#HF/6-31G* nosymm scf=tight 

Mol

0 1
H	 -1.836216	 1.387520	 -0.000064
C	 -1.301823	 0.443321	 -0.000031
O	 -0.003969	 0.658512	 0.000451
O	 -1.829879	 -0.616434	 -0.000857
C	 0.850537	 -0.484732	 0.000380
C	 2.024275	 -0.174156	 -0.903058
H	 0.288870	 -1.339700	 -0.350161
H	 1.166157	 -0.684661	 1.015125
H	 1.688671	 0.031291	 -1.913105
H	 2.701114	 -1.021688	 -0.931536
H	 2.570316	 0.689493	 -0.541342

5 3 2 4 F

