%nprocshared=1
%mem=2GB
#HF/6-31G* nosymm scf=tight 

Mol

0 1
H	 -1.209889	 1.501431	 -0.579380
C	 -0.602418	 0.605242	 -0.713961
N	 0.538815	 0.649616	 0.000000
O	 -0.947792	 -0.292003	 -1.424508
C	 1.521968	 -0.411503	 0.000000
H	 0.707101	 1.457855	 0.553816
H	 2.150599	 -0.357004	 -0.881901
H	 0.999455	 -1.354525	 0.000000
H	 2.150599	 -0.357004	 0.881901

1 2 3 6 F

