%nprocshared=1
%mem=2GB
#HF/6-31G* nosymm scf=tight 

Mol

0 1
H	 -2.273092	 1.173159	 0.000295
O	 -1.438904	 1.618192	 0.000114
C	 -0.409536	 0.736003	 0.000030
C	 0.580554	 0.935972	 -0.949144
C	 -0.335594	 -0.323451	 0.901712
H	 0.484411	 1.765226	 -1.625225
C	 1.661097	 0.076740	 -1.009622
C	 0.761988	 -1.171561	 0.817968
C	 -1.416954	 -0.540015	 1.936491
H	 2.425905	 0.237362	 -1.748380
C	 1.757959	 -0.984539	 -0.124026
H	 0.833849	 -1.994843	 1.507451
H	 -2.388997	 -0.712608	 1.479012
H	 -1.194047	 -1.405589	 2.547287
H	 -1.512852	 0.310258	 2.608679
H	 2.595560	 -1.656788	 -0.165302
