%nprocshared=1
%mem=2GB
#HF/6-31G* nosymm scf=tight 

Mol

0 1
H	 -2.798360	 -0.862255	 -0.071053
N	 -1.863561	 -0.715187	 0.256814
C	 -1.344686	 0.554728	 -0.219830
H	 -1.300452	 -1.461917	 -0.101532
C	 0.107469	 0.402012	 -0.621150
H	 -1.894904	 0.962891	 -1.068750
H	 -1.405826	 1.279143	 0.586561
O	 0.849869	 0.099697	 0.525382
H	 0.213109	 -0.395278	 -1.356545
H	 0.462882	 1.328154	 -1.067443
C	 2.223198	 0.015399	 0.314587
H	 2.686640	 -0.221915	 1.262532
H	 2.468625	 -0.766501	 -0.401919
H	 2.627976	 0.957150	 -0.050198

8 5 3 6 F

5 8 11 13 F

11 8 5 3 F

