%nprocshared=1
%mem=2GB
#HF/6-31G* nosymm scf=tight 
prop=(read,field)

Mol

0 1
O	 1.847116	 1.296254	 0.000415
C	 1.705382	 0.115988	 0.001797
C	 0.382082	 -0.609783	 0.001258
O	 2.721637	 -0.737451	 -0.000216
C	 -0.822717	 0.326221	 0.001381
H	 0.371541	 -1.265053	 -0.865474
H	 0.371199	 -1.265712	 0.867490
C	 -2.149161	 -0.435097	 -0.000098
H	 -0.769910	 0.977129	 -0.865636
H	 -0.770929	 0.975689	 0.869608
C	 -3.368488	 0.488537	 -0.000883
H	 -2.193455	 -1.087216	 -0.871175
H	 -2.195020	 -1.087769	 0.870418
C	 -4.693531	 -0.272720	 -0.001129
H	 -3.325507	 1.139456	 -0.871284
H	 -3.326132	 1.139993	 0.869145
H	 -4.780983	 -0.907894	 -0.878124
H	 -5.538360	 0.408980	 -0.001420
H	 -4.781403	 -0.907749	 0.875984
C	 4.025179	 -0.184522	 -0.001949
H	 4.179321	 0.422506	 -0.882452
H	 4.702073	 -1.024574	 -0.003642
H	 4.182272	 0.421219	 0.878906

@grid.dat /N
