%nprocshared=1
%mem=2GB
#HF/6-31G* nosymm scf=tight 

Mol

0 1
H	 -2.646374	 -0.642757	 1.268656
C	 -2.083525	 -0.384536	 0.393091
O	 -0.807605	 -0.127164	 0.768327
F	 -2.118945	 -1.383102	 -0.486752
F	 -2.621877	 0.670592	 -0.209486
C	 0.084052	 0.273579	 -0.209957
C	 1.483128	 -0.017455	 0.317345
Cl	 -0.102267	 1.998711	 -0.565516
H	 -0.049200	 -0.265864	 -1.131379
F	 1.770253	 0.780797	 1.323571
F	 2.354812	 0.207855	 -0.645380
F	 1.613997	 -1.260009	 0.713460

10 7 6 9 F

6 3 2 4 F

