%nprocshared=1
%mem=2GB
#HF/6-31G* nosymm scf=tight 

Mol

0 1
O	 -0.644987	 -1.652990	 1.664992
C	 -1.514987	 -1.440192	 0.882411
C	 -2.775474	 -2.260464	 0.784449
O	 -1.481751	 -0.454642	 0.000584
H	 -3.283566	 -2.233162	 1.740984
H	 -3.433286	 -1.897333	 0.008654
H	 -2.505502	 -3.290827	 0.586090
C	 -0.334255	 0.388708	 0.000906
C	 0.891947	 -0.504646	 0.000751
H	 -0.365390	 1.025305	 -0.873475
H	 -0.365484	 1.024911	 0.875569
C	 0.838286	 -1.556101	 -1.109219
H	 0.972990	 -0.989855	 0.969484
H	 1.777328	 0.114301	 -0.115286
C	 1.428662	 -2.901905	 -0.684255
H	 -0.193918	 -1.701358	 -1.423134
H	 1.374395	 -1.190187	 -1.983162
C	 1.373819	 -3.952459	 -1.792495
H	 0.893851	 -3.269187	 0.188761
H	 2.460848	 -2.758984	 -0.372428
H	 0.350230	 -4.142285	 -2.102730
H	 1.798993	 -4.894693	 -1.461350
H	 1.929267	 -3.628415	 -2.667985

13 9 8 10 F

2 4 8 10 F

19 15 12 16 F

1 2 4 8 F

