%nprocshared=1
%mem=2GB
#HF/6-31G* nosymm scf=tight 

Mol

0 1
H	 -1.411757	 1.042621	 -2.120914
C	 -1.075571	 0.568357	 -1.220104
C	 -1.930507	 0.432938	 -0.076308
C	 0.167625	 0.079275	 -1.126937
H	 -2.934818	 0.815695	 -0.119912
C	 -1.487595	 -0.164143	 1.039392
H	 0.868955	 0.140418	 -1.937371
N	 0.640212	 -0.532897	 -0.000111
H	 -2.097887	 -0.283257	 1.913297
C	 -0.134759	 -0.696304	 1.140501
C	 2.010177	 -1.032049	 0.000042
O	 0.301125	 -1.239654	 2.124869
H	 2.187698	 -1.635381	 -0.882279
H	 2.677579	 -0.189247	 -0.001871
H	 2.188882	 -1.632203	 0.884288
