%nprocshared=24
%mem=2GB
#HF/6-31G* nosymm scf=tight 

Mol

0 1
H	 -4.208896	 0.121468	 -0.719659
C	 -3.391192	 -0.114969	 -0.066882
C	 -2.234704	 -0.477729	 -0.571800
H	 -3.544699	 -0.047007	 0.993649
O	 -1.180634	 -0.819263	 0.215062
H	 -2.058395	 -0.545052	 -1.630846
C	 0.051604	 -1.018856	 -0.387932
C	 1.043764	 0.054862	 -0.001873
H	 -0.017620	 -1.041351	 -1.469781
H	 0.437898	 -1.966374	 -0.042284
F	 0.990529	 0.254188	 1.307035
F	 2.284001	 -0.290991	 -0.305236
F	 0.789209	 1.201364	 -0.597797

11 8 7 9 F

6 3 2 1 F

6 3 5 7 F

