%nprocshared=1
%mem=2GB
#HF/6-31G* nosymm scf=tight opt=ModRedundant

Mol

0 1
H	 -3.650000	 0.186000	 0.000000
C	 -2.576000	 0.118000	 0.000000
C	 -1.960000	 -1.125000	 0.000000
C	 -1.811000	 1.272000	 0.000000
H	 -2.554000	 -2.021000	 0.000000
C	 -0.581000	 -1.212000	 -0.000000
H	 -2.287000	 2.236000	 0.000000
C	 -0.428000	 1.183000	 -0.000000
H	 -0.090000	 -2.166000	 -0.000000
C	 0.199000	 -0.057000	 -0.000000
H	 0.151000	 2.088000	 -0.000000
C	 1.692000	 -0.209000	 -0.000000
C	 2.559000	 1.033000	 0.000000
O	 2.192000	 -1.295000	 0.000000
H	 2.363000	 1.642000	 -0.877000
H	 3.595000	 0.729000	 0.000000
H	 2.363000	 1.642000	 0.877000
