%nprocshared=1
%mem=2GB
#HF/6-31G* nosymm scf=tight 

Mol

0 1
O	 0.391030	 1.298905	 0.000133
C	 0.503002	 0.111612	 0.000005
C	 -0.702327	 -0.811998	 -0.000075
C	 1.863306	 -0.554493	 0.000030
C	 -0.343615	 -2.283984	 0.163432
H	 -1.372394	 -0.486596	 0.793585
H	 -1.248911	 -0.647610	 -0.926891
H	 0.178695	 -2.454762	 1.096838
H	 -1.240552	 -2.894483	 0.156193
H	 0.303271	 -2.617204	 -0.638891
H	 1.974395	 -1.189404	 -0.874166
H	 2.638695	 0.198920	 -0.000196
H	 1.974487	 -1.188655	 0.874727
