%nprocshared=1
%mem=2GB
#HF/6-31G* nosymm scf=tight 

Mol

0 1
H	 1.965424	 3.307386	 0.335754
N	 1.637109	 2.424424	 -0.005030
C	 1.327798	 1.527733	 1.099414
H	 2.369926	 2.042645	 -0.572529
C	 0.736962	 0.221009	 0.580626
H	 0.598990	 2.024210	 1.732823
H	 2.193228	 1.309114	 1.729998
C	 -0.679275	 0.379305	 0.025956
H	 1.398158	 -0.174163	 -0.185203
H	 0.728075	 -0.510764	 1.387946
C	 -0.791153	 1.473151	 -1.037697
H	 -1.363543	 0.604237	 0.842677
H	 -1.012468	 -0.566710	 -0.398171
C	 -2.115055	 2.234023	 -0.975523
H	 0.033362	 2.173024	 -0.921214
H	 -0.676491	 1.028719	 -2.024099
H	 -2.243718	 2.718807	 -0.011807
H	 -2.163946	 3.002377	 -1.740928
H	 -2.958889	 1.565841	 -1.123406

6 3 5 9 F

12 8 5 9 F

1 2 3 6 F

