%nprocshared=1
%mem=2GB
#HF/6-31G* nosymm scf=tight 

Mol

0 1
O	 -1.487788	 1.240889	 -0.102860
C	 -1.083277	 0.139568	 0.115197
C	 0.323299	 -0.082943	 0.642902
C	 -1.933017	 -1.084621	 -0.143902
C	 1.355627	 -0.005344	 -0.493127
H	 0.396251	 -1.044647	 1.143147
H	 0.528637	 0.693580	 1.371677
C	 1.293198	 -1.218580	 -1.419090
H	 1.195052	 0.900296	 -1.073906
H	 2.345178	 0.075953	 -0.055727
H	 2.034492	 -1.143048	 -2.208057
H	 0.317404	 -1.306752	 -1.887999
H	 1.482932	 -2.137215	 -0.872135
H	 -1.393885	 -1.806447	 -0.750509
H	 -2.850323	 -0.799888	 -0.640100
H	 -2.169004	 -1.571158	 0.798858

4 2 3 5 F

