%nprocshared=1
%mem=2GB
#HF/6-31G* nosymm scf=tight 

Mol

0 1
H	 -3.161837	 0.500524	 -0.000234
C	 -2.367097	 -0.232926	 -0.000000
O	 -1.158440	 0.455814	 -0.000122
H	 -2.468853	 -0.861886	 -0.882833
H	 -2.468942	 -0.861421	 0.883154
C	 -1.058687	 1.440634	 0.983775
C	 0.130679	 1.125369	 1.874101
H	 -1.975120	 1.475382	 1.574404
H	 -0.936658	 2.421423	 0.522178
C	 -0.132278	 -0.059185	 2.802845
H	 0.989714	 0.922648	 1.241942
H	 0.370734	 2.011020	 2.454355
H	 -0.350896	 -0.962828	 2.240654
H	 0.731992	 -0.261552	 3.426489
H	 -0.974834	 0.132982	 3.461310

6 3 2 4 F

11 7 6 8 F

