%nprocshared=1
%mem=2GB
#HF/6-31G* nosymm scf=tight 

Mol

0 1
H	 2.089113	 -0.728339	 -0.456437
O	 1.257964	 -0.641023	 -0.012494
C	 0.702312	 0.627605	 -0.264544
C	 -0.714990	 0.596302	 0.266387
H	 0.685494	 0.834954	 -1.331117
H	 1.273296	 1.409092	 0.232226
O	 -1.405996	 -0.526611	 -0.195820
H	 -1.257453	 1.468809	 -0.075599
H	 -0.688972	 0.618407	 1.353696
H	 -0.890587	 -1.292708	 0.022039

10 7 4 3 F

