%nprocshared=1
%mem=2GB
#HF/6-31G* nosymm scf=tight 

Mol

0 1
O	 -0.682937	 1.318834	 -0.186099
C	 -0.860635	 0.152188	 -0.042321
C	 -2.173363	 -0.477127	 0.338347
O	 0.083258	 -0.765189	 -0.202595
H	 -2.477673	 -1.180929	 -0.427595
H	 -2.923125	 0.290956	 0.455536
H	 -2.058825	 -1.029004	 1.264191
C	 1.391937	 -0.334737	 -0.569838
C	 2.252354	 -1.497907	 -1.027402
H	 1.842361	 0.182404	 0.263722
H	 1.230226	 0.367566	 -1.374897
H	 3.214229	 -1.130122	 -1.371293
H	 2.424766	 -2.193157	 -0.215447
H	 1.776366	 -2.025199	 -1.847044

8 4 2 1 F

