%nprocshared=1
%mem=2GB
#HF/6-31G* nosymm scf=tight 

Mol

0 1
H	 -2.151143	 1.420102	 1.160685
C	 -2.360571	 0.393871	 0.884399
C	 -1.095386	 -0.454469	 0.933265
H	 -2.783385	 0.403707	 -0.112804
H	 -3.105357	 0.000352	 1.568294
C	 -0.000005	 0.033229	 -0.000001
H	 -1.314951	 -1.489813	 0.679792
H	 -0.688256	 -0.482398	 1.942155
C	 1.290528	 -0.768786	 0.000276
O	 -0.145205	 0.992346	 -0.694404
C	 2.545731	 0.095645	 -0.000061
H	 1.275672	 -1.427874	 -0.865626
H	 1.275566	 -1.427086	 0.866768
H	 2.577157	 0.734767	 -0.874036
H	 3.433520	 -0.528139	 0.000137
H	 2.577172	 0.735117	 0.873581
