%nprocshared=1
%mem=2GB
#HF/6-31G* nosymm scf=tight 

Mol

0 1
H	 0.258412	 -1.037551	 -1.441755
C	 0.387902	 0.044594	 -1.567844
C	 0.065331	 0.871482	 -0.349150
O	 0.761651	 0.484126	 -2.606517
C	 -1.339775	 0.583656	 0.198860
H	 0.184481	 1.918103	 -0.604689
H	 0.804613	 0.625642	 0.411893
C	 -1.808407	 -0.848507	 -0.061364
H	 -2.036183	 1.280685	 -0.256307
H	 -1.360094	 0.788874	 1.267089
H	 -1.828843	 -1.063152	 -1.125336
H	 -2.808409	 -1.004529	 0.329750
H	 -1.153967	 -1.577789	 0.406873

6 3 2 4 F

