%nprocshared=1
%mem=2GB
#HF/6-31G* nosymm scf=tight 

Mol

0 1
H	 -3.162202	 -0.157112	 -0.141872
C	 -2.911645	 0.806882	 -0.580138
O	 -1.555431	 0.893627	 -0.877618
H	 -3.456789	 0.922421	 -1.506751
H	 -3.221450	 1.590587	 0.109975
C	 -0.719715	 0.768384	 0.229244
C	 0.719720	 0.768376	 -0.229267
H	 -0.876667	 1.599851	 0.917521
H	 -0.924858	 -0.155273	 0.766624
O	 1.392611	 -0.295398	 0.366430
H	 0.750534	 0.687200	 -1.313918
H	 1.185043	 1.714359	 0.050526
C	 2.706965	 -0.449871	 -0.062409
H	 2.756559	 -0.644779	 -1.131878
H	 3.305899	 0.433456	 0.155466
H	 3.125548	 -1.294566	 0.467107

7 10 13 14 F

2 3 6 7 F

