%nprocshared=8
%mem=2GB
#B3LYP/6-31G* nosymm scf=tight
# opt=ModRedundant  EmpiricalDispersion=GD3

Mol

1 1
C	 0.797610	 0.986671	 -2.394717
C	 2.045533	 1.398019	 -1.890193
C	 2.799610	 2.330678	 -2.595343
C	 2.313569	 2.861965	 -3.793977
C	 1.072082	 2.458739	 -4.295320
C	 0.313144	 1.519745	 -3.603928
C	 -0.000000	 -0.000000	 -1.658508
H	 2.446133	 0.956392	 -0.982051
H	 3.769649	 2.635655	 -2.216466
H	 2.903890	 3.592213	 -4.338855
H	 0.691948	 2.883497	 -5.218691
H	 -0.669288	 1.241627	 -3.975027
N	 -0.712589	 -0.905950	 -2.322235
N	 -0.009214	 0.013056	 -0.328543
H	 -0.467693	 -0.700733	 0.225596
H	 0.396442	 0.793757	 0.170689
H	 -1.377189	 -1.485970	 -1.827091
H	 -0.673431	 -1.006470	 -3.329771

1 7 13 17 F
