%nprocshared=1
%mem=2GB
#HF/6-31G* nosymm scf=tight 

Mol

0 1
H	 -3.420663	 1.227371	 -1.044276
O	 -3.452007	 0.283848	 -0.965577
C	 -3.181085	 -0.079926	 0.364119
C	 -1.765924	 0.277073	 0.805136
H	 -3.327791	 -1.152017	 0.410903
H	 -3.905698	 0.375695	 1.036898
C	 -0.677594	 -0.417312	 -0.014550
H	 -1.637766	 1.358238	 0.744969
H	 -1.659588	 0.017670	 1.857098
C	 0.738335	 -0.034840	 0.421385
H	 -0.814977	 -0.178223	 -1.064632
H	 -0.802730	 -1.495410	 0.071702
C	 0.933541	 -0.112700	 1.937933
H	 1.450552	 -0.686723	 -0.078828
H	 0.960556	 0.976572	 0.083350
C	 0.133443	 0.918863	 2.741598
H	 1.991937	 -0.005323	 2.170234
H	 0.649533	 -1.107613	 2.274540
C	 0.109071	 0.669254	 4.250738
H	 -0.889549	 0.923947	 2.373155
H	 0.530304	 1.913149	 2.546404
H	 -0.271886	 -0.323416	 4.475718
H	 -0.532140	 1.389118	 4.750221
H	 1.096477	 0.752686	 4.692588

20 16 13 17 F

17 13 10 7 F

11 7 4 3 F

1 2 3 5 F

7 4 3 2 F

