%nprocshared=1
%mem=2GB
#HF/6-31G* nosymm scf=tight 
prop=(read,field)

Mol

0 1
H	 -3.301428	 0.570483	 -0.000000
C	 -2.250792	 0.344130	 -0.000000
C	 -1.813476	 -0.976089	 -0.000000
C	 -1.315114	 1.358013	 0.000000
H	 -2.528671	 -1.779410	 -0.000000
C	 -0.467109	 -1.270186	 -0.000000
H	 -1.634885	 2.385063	 0.000000
C	 0.047270	 1.078070	 0.000000
H	 -0.115759	 -2.285266	 -0.000000
C	 0.472252	 -0.241199	 -0.000000
H	 0.750165	 1.888382	 0.000000
O	 1.765445	 -0.628488	 0.000000
C	 2.778608	 0.335137	 -0.000000
H	 2.731469	 0.961178	 -0.884976
H	 3.711892	 -0.207811	 0.000000
H	 2.731469	 0.961178	 0.884976

@grid.dat /N
