%nprocshared=1
%mem=2GB
#HF/6-31G* nosymm scf=tight 

Mol

0 1
H	 -0.883881	 -2.463649	 -0.416797
N	 -0.161775	 -1.779144	 -0.532970
C	 -0.563778	 -0.502042	 0.037919
H	 -0.003842	 -1.689174	 -1.518727
C	 0.575259	 0.508231	 -0.048326
H	 -0.813931	 -0.670430	 1.081118
H	 -1.455735	 -0.081679	 -0.433730
C	 1.954651	 -0.143624	 0.035137
H	 0.475158	 1.060484	 -0.977307
H	 0.469181	 1.234488	 0.755973
H	 2.103292	 -0.853109	 -0.774172
H	 2.742821	 0.599562	 -0.030094
H	 2.083613	 -0.679371	 0.971560

1 2 3 6 F

