%nprocshared=1
%mem=2GB
#HF/6-31G* nosymm scf=tight 

Mol

0 1
H	 2.339122	 -2.060219	 0.059233
N	 1.352298	 -1.894275	 0.060532
C	 0.945656	 -1.242394	 -1.170892
C	 0.970083	 -1.115875	 1.224455
H	 1.234131	 -1.865422	 -2.010765
H	 1.414190	 -0.263914	 -1.300101
C	 -0.565000	 -1.062658	 -1.164236
H	 1.276247	 -1.647281	 2.119239
H	 1.440096	 -0.129733	 1.240324
C	 -0.540588	 -0.936217	 1.229627
H	 -1.041628	 -2.047223	 -1.187795
H	 -0.870737	 -0.525825	 -2.056358
N	 -0.975995	 -0.298722	 0.000000
H	 -0.828696	 -0.308073	 2.066271
H	 -1.015581	 -1.912312	 1.366448
C	 -2.393863	 -0.024976	 0.000000
H	 -2.854032	 -0.467193	 -0.876721
H	 -2.854032	 -0.467193	 0.876721
H	 -2.623281	 1.044943	 0.000000
