%nprocshared=1
%mem=2GB
#HF/6-31G* nosymm scf=tight 

Mol

0 1
H	 -6.776793	 4.592787	 5.161063
C	 -6.392841	 3.978629	 4.337041
C	 -7.394429	 3.030274	 3.728719
O	 -5.262895	 4.088544	 3.986483
C	 -6.823620	 1.619271	 3.529967
H	 -8.278445	 3.017954	 4.355675
H	 -7.677412	 3.441733	 2.760588
C	 -5.727140	 1.548976	 2.464092
H	 -6.426713	 1.272011	 4.479261
H	 -7.631151	 0.935980	 3.271582
C	 -6.253274	 1.803461	 1.050150
H	 -5.253529	 0.570258	 2.504734
H	 -4.945085	 2.271108	 2.690931
C	 -7.144331	 3.045428	 0.963640
H	 -5.408798	 1.903303	 0.372932
H	 -6.815636	 0.933796	 0.712783
C	 -8.476090	 2.930578	 1.714174
H	 -7.340708	 3.275648	 -0.082366
H	 -6.595566	 3.895780	 1.362978
C	 -9.690231	 2.676458	 0.819242
H	 -8.638562	 3.852253	 2.267408
H	 -8.403318	 2.139819	 2.458032
H	 -9.778820	 3.443808	 0.054653
H	 -9.632321	 1.715700	 0.318678
H	 -10.606384	 2.684380	 1.401990

6 3 5 8 F

6 3 2 4 F

3 5 8 12 F

12 8 11 14 F

8 11 14 18 F

