%nprocshared=1
%mem=2GB
#HF/6-31G* nosymm scf=tight 

Mol

0 1
H	 -2.704867	 0.173129	 0.835126
O	 -1.776812	 0.192515	 0.652340
C	 -1.563749	 0.607597	 -0.672939
C	 -1.827568	 2.093954	 -0.887108
H	 -0.526228	 0.385894	 -0.887586
H	 -2.169124	 0.016685	 -1.359323
C	 -1.175062	 2.999152	 0.160613
H	 -1.473373	 2.367846	 -1.877510
H	 -2.904840	 2.251468	 -0.880621
C	 -1.800854	 2.842697	 1.549399
H	 -1.257801	 4.033863	 -0.160154
H	 -0.110247	 2.773688	 0.221234
C	 -1.999483	 1.392906	 2.006557
H	 -1.188786	 3.369497	 2.279262
H	 -2.768655	 3.339749	 1.550879
C	 -3.034785	 0.600176	 1.203932
H	 -1.042445	 0.879574	 1.940344
H	 -2.274936	 1.382795	 3.060056
C	 -4.465221	 1.099239	 1.418936
H	 -2.976512	 -0.451135	 1.482249
H	 -2.802161	 0.647781	 0.142838
C	 -5.411106	 0.710962	 0.283063
H	 -4.847259	 0.703375	 2.357459
H	 -4.456195	 2.181939	 1.526468
H	 -5.467273	 -0.368187	 0.171231
H	 -6.416738	 1.077069	 0.465559
H	 -5.076338	 1.123259	 -0.664726

14 10 7 4 F

14 10 13 16 F

10 7 4 8 F

8 4 3 2 F

10 13 16 20 F

4 3 2 1 F

