%nprocshared=1
%mem=2GB
#HF/6-31G* nosymm scf=tight 

Mol

0 1
H	 2.866480	 -0.465706	 0.876907
C	 2.405773	 -0.024801	 0.000000
N	 0.988830	 -0.304158	 0.000000
H	 2.866480	 -0.465706	 -0.876907
H	 2.629928	 1.045948	 0.000000
C	 0.701509	 -1.707420	 -0.232960
C	 0.260354	 0.530189	 -0.937633
H	 1.066855	 -2.036233	 -1.211174
H	 1.203103	 -2.302596	 0.523621
C	 -0.797696	 -1.944468	 -0.154330
H	 0.438914	 1.573491	 -0.697046
H	 0.593553	 0.364429	 -1.967197
C	 -1.227152	 0.233802	 -0.840316
H	 -1.037896	 -2.967368	 -0.413163
H	 -1.144860	 -1.752019	 0.859283
O	 -1.482252	 -1.125121	 -1.059872
H	 -1.777116	 0.782071	 -1.593946
H	 -1.594521	 0.528735	 0.141022
