%nprocshared=1
%mem=2GB
#HF/6-31G* nosymm scf=tight 

Mol

0 1
H	 -1.836216	 1.387520	 -0.000064
C	 -1.301823	 0.443321	 -0.000031
O	 -0.003969	 0.658512	 0.000451
O	 -1.829879	 -0.616434	 -0.000857
C	 0.510165	 1.570279	 -0.969876
C	 0.359157	 0.920457	 -2.328275
H	 1.545282	 1.779616	 -0.737435
H	 -0.041896	 2.497762	 -0.904311
H	 0.912003	 -0.010885	 -2.372951
H	 0.740276	 1.583576	 -3.097855
H	 -0.682820	 0.710666	 -2.540786

7 5 3 2 F

