%nprocshared=1
%mem=2GB
#HF/6-31G* nosymm scf=tight 

Mol

0 1
H	 -2.798360	 -0.862255	 -0.071053
N	 -1.863561	 -0.715187	 0.256814
C	 -1.344686	 0.554728	 -0.219830
H	 -1.300452	 -1.461917	 -0.101532
C	 -2.488136	 1.461177	 -0.624811
H	 -0.731524	 1.081189	 0.512886
H	 -0.724306	 0.370788	 -1.091653
O	 -3.136966	 0.885088	 -1.722184
H	 -3.186573	 1.579288	 0.203364
H	 -2.100873	 2.442954	 -0.888204
C	 -4.163073	 1.660456	 -2.254612
H	 -4.586375	 1.116773	 -3.088232
H	 -4.945847	 1.843126	 -1.520529
H	 -3.792926	 2.619756	 -2.610343

8 5 3 6 F

5 8 11 13 F

11 8 5 3 F

