%nprocshared=1
%mem=2GB
#HF/6-31G* nosymm scf=tight 

Mol

0 1
H	 -0.121741	 -6.156630	 0.415862
C	 0.238573	 -5.133835	 0.373279
C	 -0.921112	 -4.146802	 0.247341
H	 0.814550	 -4.949595	 1.275794
H	 0.916391	 -5.057846	 -0.472319
C	 -0.457195	 -2.695232	 0.183137
H	 -1.599354	 -4.256123	 1.087833
H	 -1.496252	 -4.379524	 -0.647335
N	 -1.584387	 -1.788043	 0.094231
H	 0.094682	 -2.454960	 1.087938
H	 0.244099	 -2.571299	 -0.648852
C	 -1.217365	 -0.386708	 0.039277
H	 -2.135396	 -2.019647	 -0.710623
C	 -2.452633	 0.504241	 -0.042481
H	 -0.664258	 -0.150312	 0.944345
H	 -0.548682	 -0.163574	 -0.798850
C	 -3.758029	 -0.289423	 -0.010781
H	 -2.394220	 1.093569	 -0.952170
H	 -2.440793	 1.210787	 0.785871
H	 -3.816659	 -0.981993	 -0.845726
H	 -4.617837	 0.370165	 -0.069296
H	 -3.847478	 -0.867502	 0.904682

10 6 9 12 F

