%nprocshared=1
%mem=2GB
#HF/6-31G* nosymm scf=tight 

Mol

0 1
H	 -2.551376	 1.869976	 1.775700
C	 -2.044273	 0.979932	 2.142862
O	 -0.760701	 0.872232	 1.617330
H	 -1.951787	 1.048197	 3.218003
H	 -2.652256	 0.110283	 1.896908
C	 -0.719715	 0.768384	 0.229244
C	 0.719720	 0.768376	 -0.229267
H	 -1.199223	 -0.156055	 -0.095071
H	 -1.244474	 1.599912	 -0.236798
O	 1.392611	 -0.295398	 0.366430
H	 0.750534	 0.687200	 -1.313918
H	 1.185043	 1.714359	 0.050526
C	 2.706965	 -0.449871	 -0.062409
H	 2.756559	 -0.644779	 -1.131878
H	 3.305899	 0.433456	 0.155466
H	 3.125548	 -1.294566	 0.467107

7 10 13 14 F

2 3 6 7 F

