%nprocshared=1
%mem=2GB
#HF/6-31G* nosymm scf=tight 

Mol

0 1
H	 5.268524	 0.192471	 1.070992
C	 4.673736	 -0.214914	 0.259335
C	 3.185378	 -0.203514	 0.605509
H	 4.871837	 0.380453	 -0.627026
H	 5.025590	 -1.224632	 0.065769
C	 2.317601	 -0.778379	 -0.516234
H	 2.874655	 0.814325	 0.817774
H	 3.023650	 -0.778480	 1.515976
C	 2.513945	 -2.278012	 -0.739433
H	 1.272058	 -0.588199	 -0.301026
H	 2.549040	 -0.261467	 -1.444824
C	 1.946408	 -3.155865	 0.366243
H	 2.018010	 -2.580433	 -1.660497
H	 3.566018	 -2.515479	 -0.880599
C	 2.425654	 -4.595382	 0.435725
O	 1.139789	 -2.740599	 1.142983
C	 2.071846	 -5.425263	 -0.807369
H	 1.979260	 -5.035554	 1.319295
H	 3.505441	 -4.594225	 0.572624
C	 2.482015	 -6.892052	 -0.662799
H	 0.999848	 -5.367541	 -0.983729
H	 2.554890	 -5.006160	 -1.686284
C	 2.135125	 -7.728420	 -1.893677
H	 1.995135	 -7.315911	 0.212045
H	 3.552155	 -6.949107	 -0.475875
H	 1.066371	 -7.716905	 -2.086959
H	 2.635629	 -7.349413	 -2.780222
H	 2.435934	 -8.762751	 -1.761190

12 15 17 21 F

16 12 15 17 F

