%nprocshared=1
%mem=2GB
#HF/6-31G* nosymm scf=tight 

Mol

0 1
H	 -3.161837	 0.500524	 -0.000234
C	 -2.367097	 -0.232926	 -0.000000
O	 -1.158440	 0.455814	 -0.000122
H	 -2.468853	 -0.861886	 -0.882833
H	 -2.468942	 -0.861421	 0.883154
C	 -1.058687	 1.440634	 0.983775
C	 0.300233	 2.109559	 0.871797
H	 -1.182068	 0.997128	 1.972703
H	 -1.854304	 2.176601	 0.860266
C	 0.566313	 3.087352	 2.015476
H	 1.063405	 1.337620	 0.853316
H	 0.352726	 2.624924	 -0.082322
H	 0.542381	 2.586205	 2.979169
H	 1.541829	 3.550099	 1.910220
H	 -0.173845	 3.882394	 2.037355

6 3 2 4 F

8 6 3 2 F

