%nprocshared=1
%mem=2GB
#HF/6-31G* nosymm scf=tight 

Mol

0 1
H	 -2.240291	 0.559484	 0.604969
C	 -2.008299	 -0.205926	 -0.129530
O	 -0.774054	 0.001095	 -0.743181
H	 -2.752932	 -0.160639	 -0.912984
H	 -2.076115	 -1.178578	 0.348530
C	 -0.716222	 0.650990	 -2.000489
C	 0.774579	 0.912192	 -2.203707
C	 -1.244475	 -0.256280	 -3.116284
C	 -1.480229	 1.978624	 -1.972245
H	 1.321755	 -0.023752	 -2.197491
H	 1.157913	 1.531457	 -1.400625
H	 0.958251	 1.415206	 -3.147583
H	 -0.747746	 -1.220225	 -3.083122
H	 -1.055511	 0.191840	 -4.086377
H	 -2.313797	 -0.420658	 -3.038268
H	 -1.148879	 2.584848	 -1.135734
H	 -1.302794	 2.533953	 -2.887483
H	 -2.551490	 1.832520	 -1.884584

2 3 6 7 F

