%nprocshared=1
%mem=2GB
#HF/6-31G* nosymm scf=tight 

Mol

0 1
H	 2.398195	 1.804380	 -1.298815
C	 1.677544	 1.606690	 -0.513634
C	 1.322923	 0.120767	 -0.479465
H	 2.113574	 1.931551	 0.425896
H	 0.801188	 2.217641	 -0.706853
C	 0.306652	 -0.176050	 0.621399
H	 2.214740	 -0.471559	 -0.302714
H	 0.908123	 -0.189229	 -1.431360
N	 -1.068537	 -0.011044	 0.085269
H	 0.372515	 -1.192590	 0.973735
H	 0.391664	 0.520566	 1.441230
O	 -1.656956	 -0.997225	 -0.235017
O	 -1.478635	 1.104830	 -0.018026

12 9 6 3 F

