%nprocshared=1
%mem=2GB
#HF/6-31G* nosymm scf=tight 

Mol

0 1
H	 -2.153054	 -2.250733	 0.000000
O	 -2.462445	 -1.355403	 0.000000
C	 -1.434260	 -0.483044	 0.000000
C	 -0.335213	 -0.792255	 0.794477
C	 -1.442141	 0.679094	 -0.747853
H	 -0.351477	 -1.700601	 1.366837
C	 0.747321	 0.062105	 0.835497
H	 -2.285489	 0.929997	 -1.366213
C	 -0.341825	 1.531156	 -0.695709
H	 1.592464	 -0.183964	 1.451738
C	 0.757720	 1.233713	 0.091508
C	 -0.357739	 2.745040	 -1.481032
H	 1.598267	 1.900171	 0.121388
N	 -0.372607	 3.698321	 -2.099044

14 12 9 5 F

