%nprocshared=1
%mem=2GB
#HF/6-31G* nosymm scf=tight 

Mol

0 1
H	 -2.240291	 0.559484	 0.604969
C	 -2.008299	 -0.205926	 -0.129530
O	 -0.774054	 0.001095	 -0.743181
H	 -2.752932	 -0.160639	 -0.912984
H	 -2.076115	 -1.178578	 0.348530
C	 -0.053850	 -1.103679	 -1.260202
C	 1.077752	 -0.456661	 -2.055725
C	 0.525656	 -1.962550	 -0.131618
C	 -0.930146	 -1.948354	 -2.190656
H	 1.684289	 0.163318	 -1.405211
H	 0.670884	 0.173888	 -2.838184
H	 1.714450	 -1.207974	 -2.511582
H	 1.085146	 -1.343541	 0.561799
H	 1.196510	 -2.713105	 -0.536863
H	 -0.246569	 -2.484250	 0.423408
H	 -1.392999	 -1.319529	 -2.943914
H	 -0.329268	 -2.698376	 -2.694588
H	 -1.714475	 -2.469729	 -1.652486

2 3 6 7 F

