%nprocshared=1
%mem=2GB
#HF/6-31G* nosymm scf=tight 

Mol

0 1
H	 2.591676	 2.013956	 0.335017
O	 3.341076	 1.666752	 -0.126416
C	 3.569581	 0.339145	 0.272707
C	 2.539767	 -0.640285	 -0.279495
H	 4.553106	 0.084646	 -0.100901
H	 3.608576	 0.269204	 1.359154
C	 1.115811	 -0.397273	 0.226630
H	 2.556196	 -0.582511	 -1.364741
H	 2.852081	 -1.648031	 -0.010655
C	 0.115918	 -1.429151	 -0.302766
H	 0.797950	 0.599468	 -0.066350
H	 1.109961	 -0.420744	 1.316472
C	 -0.174971	 -2.592733	 0.652117
H	 -0.817050	 -0.927654	 -0.553601
H	 0.500497	 -1.836982	 -1.235222
C	 -0.903472	 -2.202041	 1.940963
H	 -0.777938	 -3.327141	 0.122124
H	 0.758771	 -3.093666	 0.903172
C	 -1.264651	 -3.408150	 2.810610
H	 -1.812172	 -1.657302	 1.688705
H	 -0.291015	 -1.519144	 2.524787
C	 -1.986241	 -3.020442	 4.100826
H	 -1.890298	 -4.089889	 2.238521
H	 -0.358983	 -3.959176	 3.055601
H	 -2.913579	 -2.495703	 3.888892
H	 -2.230307	 -3.896379	 4.693954
H	 -1.371020	 -2.367462	 4.713592

14 10 13 16 F

10 7 4 8 F

8 4 3 2 F

10 13 16 20 F

20 16 19 22 F

4 3 2 1 F

