%nprocshared=1
%mem=2GB
#HF/6-31G* nosymm scf=tight 

Mol

0 1
H	 -2.273092	 1.173159	 0.000295
O	 -1.438904	 1.618192	 0.000114
C	 -0.409536	 0.736003	 0.000030
C	 0.679943	 1.051927	 -0.796479
C	 -0.430018	 -0.433615	 0.756678
H	 0.654600	 1.963782	 -1.363814
C	 1.766809	 0.200073	 -0.847230
C	 0.676323	 -1.271505	 0.686406
C	 -1.619728	 -0.776590	 1.624990
H	 2.608972	 0.450944	 -1.467163
C	 1.770930	 -0.969405	 -0.104074
H	 0.675981	 -2.179025	 1.264983
H	 -2.532529	 -0.880045	 1.041864
H	 -1.460788	 -1.716792	 2.137566
H	 -1.797341	 -0.021672	 2.388239
H	 2.612846	 -1.636621	 -0.138713
