%nprocshared=1
%mem=2GB
#HF/6-31G* nosymm scf=tight 

Mol

0 1
H	 -3.457960	 0.166880	 1.449720
O	 -3.367910	 -0.300316	 2.267454
C	 -3.043259	 -1.643282	 2.012310
C	 -1.609705	 -1.833855	 1.529264
H	 -3.184960	 -2.163733	 2.950780
H	 -3.740919	 -2.074362	 1.295219
C	 -0.757881	 -0.563672	 1.591701
H	 -1.145462	 -2.614346	 2.126489
H	 -1.643050	 -2.196866	 0.503361
C	 -1.209168	 0.500902	 0.587788
H	 0.281064	 -0.820959	 1.405253
H	 -0.802174	 -0.147105	 2.598106
C	 -2.720285	 0.757667	 0.557179
H	 -0.689782	 1.434142	 0.797901
H	 -0.891744	 0.195200	 -0.406943
C	 -3.562173	 -0.411041	 0.037732
H	 -3.046565	 0.998043	 1.566920
H	 -2.922305	 1.642972	 -0.043871
C	 -5.066853	 -0.146952	 0.125102
H	 -3.322117	 -1.307578	 0.607562
H	 -3.303372	 -0.628496	 -0.995727
C	 -5.909425	 -1.309424	 -0.398726
H	 -5.337027	 0.056956	 1.158986
H	 -5.307178	 0.753976	 -0.435663
H	 -5.715827	 -2.218561	 0.163603
H	 -6.970444	 -1.092790	 -0.321633
H	 -5.689135	 -1.514696	 -1.442612

14 10 7 4 F

14 10 13 16 F

10 7 4 8 F

10 13 16 20 F

20 16 19 22 F

4 3 2 1 F

