%nprocshared=1
%mem=2GB
#HF/6-31G* nosymm scf=tight 

Mol

0 1
H	 -2.424105	 0.831412	 1.175060
O	 -1.630718	 0.331716	 1.301206
C	 -1.065858	 0.646844	 2.548476
C	 -1.842419	 0.064691	 3.724392
H	 -0.065276	 0.234281	 2.531095
H	 -0.968480	 1.726030	 2.660965
C	 -2.203576	 -1.413725	 3.560936
H	 -1.252475	 0.198593	 4.627389
H	 -2.753207	 0.647596	 3.851097
C	 -3.233184	 -1.651899	 2.452785
H	 -2.589916	 -1.793172	 4.502810
H	 -1.301655	 -1.984403	 3.339112
C	 -2.939766	 -0.926462	 1.134457
H	 -3.315831	 -2.720832	 2.264643
H	 -4.208829	 -1.331539	 2.812210
C	 -3.034785	 0.600176	 1.203932
H	 -1.936604	 -1.196984	 0.811502
H	 -3.614578	 -1.295196	 0.363417
C	 -4.465221	 1.099239	 1.418936
H	 -2.641276	 1.026677	 0.282326
H	 -2.406712	 0.978110	 2.007047
C	 -5.411106	 0.710962	 0.283063
H	 -4.847259	 0.703375	 2.357459
H	 -4.456195	 2.181939	 1.526468
H	 -5.467273	 -0.368187	 0.171231
H	 -6.416738	 1.077069	 0.465559
H	 -5.076338	 1.123259	 -0.664726

14 10 7 4 F

14 10 13 16 F

10 7 4 8 F

8 4 3 2 F

10 13 16 20 F

4 3 2 1 F

