%nprocshared=1
%mem=2GB
#HF/6-31G* nosymm scf=tight 

Mol

0 1
H	 2.723015	 -0.071844	 -0.601856
N	 1.744605	 0.137684	 -0.615048
C	 1.255537	 0.362635	 0.732884
C	 1.007342	 -0.922890	 -1.277120
H	 1.820667	 1.172543	 1.181712
H	 1.365049	 -0.518439	 1.369560
C	 -0.216875	 0.740452	 0.672172
H	 1.392735	 -1.043931	 -2.283892
H	 1.101822	 -1.881824	 -0.762183
C	 -0.464916	 -0.544277	 -1.336586
H	 -0.317346	 1.704199	 0.164041
H	 -0.604008	 0.855703	 1.679343
N	 -0.975995	 -0.298722	 0.000000
H	 -1.031175	 -1.356814	 -1.780073
H	 -0.582005	 0.333398	 -1.979297
C	 -2.393863	 -0.024976	 0.000000
H	 -2.854032	 -0.467193	 -0.876721
H	 -2.854032	 -0.467193	 0.876721
H	 -2.623281	 1.044943	 0.000000
