%nprocshared=1
%mem=2GB
#HF/6-31G* nosymm scf=tight 

Mol

0 1
H	 -2.698709	 -0.000305	 0.034435
C	 -1.693833	 0.000034	 0.434417
O	 -0.828952	 -0.000968	 -0.659236
H	 -1.574200	 0.882896	 1.055746
H	 -1.574147	 -0.881698	 1.057355
C	 0.559449	 -0.000018	 -0.420814
C	 1.031262	 1.269950	 0.284517
C	 1.032656	 -1.267621	 0.287859
H	 0.980758	 -0.001103	 -1.419077
H	 0.635654	 2.147255	 -0.215861
H	 2.115097	 1.325443	 0.263120
H	 0.723756	 1.300610	 1.325029
H	 0.637440	 -2.146634	 -0.209732
H	 2.116621	 -1.322405	 0.265837
H	 0.725981	 -1.295540	 1.328537

6 3 2 1 F

