%nprocshared=1
%mem=2GB
#HF/6-31G* nosymm scf=tight 

Mol

0 1
H	 -3.042581	 -0.665861	 0.004336
O	 -2.245037	 -1.176175	 0.000806
C	 -1.162163	 -0.365336	 0.001020
C	 -0.031121	 -0.636308	 0.749784
C	 -1.223993	 0.775569	 -0.789767
H	 0.017195	 -1.518810	 1.365274
C	 1.038389	 0.246574	 0.699007
H	 -2.119021	 0.956217	 -1.356694
C	 -0.156436	 1.654681	 -0.840736
H	 1.918580	 0.040180	 1.281849
C	 0.983445	 1.381583	 -0.084390
C	 -0.213057	 2.883092	 -1.718746
H	 1.819808	 2.057678	 -0.111255
H	 0.182689	 3.751295	 -1.202608
H	 -1.228978	 3.106096	 -2.022116
H	 0.378218	 2.740478	 -2.618970
