%nprocshared=1
%mem=2GB
#HF/6-31G* nosymm scf=tight 

Mol

0 1
H	 6.939679	 -1.230516	 -2.603961
C	 6.595491	 -1.472357	 -1.603177
C	 7.442295	 -2.581788	 -0.980873
H	 6.644456	 -0.565107	 -1.008331
H	 5.551718	 -1.766103	 -1.674240
C	 6.978966	 -2.952454	 0.429711
H	 8.479934	 -2.265689	 -0.949434
H	 7.401257	 -3.464867	 -1.616624
C	 5.469855	 -3.168117	 0.545209
H	 7.489290	 -3.851926	 0.755538
H	 7.264483	 -2.159495	 1.117269
C	 4.964761	 -4.436609	 -0.126394
H	 5.188209	 -3.239922	 1.594633
H	 4.923888	 -2.313287	 0.152317
C	 3.475324	 -4.538016	 -0.405696
O	 5.703436	 -5.331353	 -0.409582
C	 3.142513	 -5.197708	 -1.752249
H	 3.077758	 -3.530724	 -0.373804
H	 3.010537	 -5.105855	 0.398180
C	 3.906992	 -6.506058	 -1.962969
H	 2.073565	 -5.394231	 -1.800676
H	 3.371148	 -4.517137	 -2.568350
C	 3.584233	 -7.172245	 -3.299729
H	 3.675183	 -7.191428	 -1.151430
H	 4.975620	 -6.311267	 -1.903941
H	 2.526789	 -7.408725	 -3.374670
H	 3.837980	 -6.523738	 -4.133494
H	 4.139105	 -8.097216	 -3.419829

10 6 3 2 F

12 15 17 21 F

