%nprocshared=1
%mem=2GB
#HF/6-31G* nosymm scf=tight 

Mol

0 1
H	 -3.489899	 1.228218	 -1.029938
O	 -3.452007	 0.283848	 -0.965577
C	 -3.181085	 -0.079926	 0.364119
C	 -1.765924	 0.277073	 0.805136
H	 -3.327791	 -1.152017	 0.410903
H	 -3.905698	 0.375695	 1.036898
C	 -0.685460	 -0.196910	 -0.167723
H	 -1.696381	 1.357647	 0.933534
H	 -1.594454	 -0.156373	 1.788977
C	 -0.556273	 -1.720436	 -0.225673
H	 0.266600	 0.241159	 0.115802
H	 -0.912379	 0.183941	 -1.162134
C	 -1.906949	 -2.424959	 -0.378671
H	 0.098310	 -1.988657	 -1.051504
H	 -0.067073	 -2.077112	 0.679904
C	 -2.838910	 -2.295353	 0.831621
H	 -1.740253	 -3.479812	 -0.591258
H	 -2.415012	 -2.017485	 -1.250252
C	 -4.276361	 -2.754150	 0.579344
H	 -2.855682	 -1.253730	 1.143118
H	 -2.422826	 -2.854451	 1.667376
H	 -4.714423	 -2.220488	 -0.259969
H	 -4.898790	 -2.567726	 1.449209
H	 -4.332052	 -3.815647	 0.361890

20 16 13 17 F

17 13 10 7 F

13 10 7 11 F

11 7 4 3 F

1 2 3 5 F

