%nprocshared=1
%mem=2GB
#HF/6-31G* nosymm scf=tight 

Mol

0 1
O	 -1.276010	 1.052711	 -0.768302
C	 -1.204840	 0.067374	 -0.106123
C	 -2.388195	 -0.672128	 0.458071
O	 -0.067104	 -0.527208	 0.221609
H	 -2.388023	 -1.694060	 0.097175
H	 -3.300579	 -0.174919	 0.164318
H	 -2.315377	 -0.706351	 1.539059
C	 1.172197	 0.142491	 -0.049618
C	 1.039754	 1.527204	 0.559165
C	 1.422363	 0.172650	 -1.549335
H	 1.961128	 -0.407972	 0.441386
H	 0.846687	 1.460530	 1.623837
H	 1.955827	 2.089625	 0.411425
H	 0.223877	 2.072740	 0.097226
H	 2.347552	 0.698465	 -1.762788
H	 1.505811	 -0.831596	 -1.944940
H	 0.612493	 0.685283	 -2.058576

11 8 4 2 F

