%nprocshared=1
%mem=2GB
#HF/6-31G* nosymm scf=tight 
prop=(read,field)

Mol

0 1
H	 5.268562	 0.192552	 1.070953
C	 4.673774	 -0.214833	 0.259296
C	 3.185416	 -0.203433	 0.605470
H	 4.871875	 0.380534	 -0.627065
H	 5.025628	 -1.224551	 0.065730
C	 2.317639	 -0.778298	 -0.516273
H	 2.874693	 0.814406	 0.817735
H	 3.023688	 -0.778399	 1.515937
C	 0.823911	 -0.796665	 -0.191148
H	 2.473318	 -0.207927	 -1.425165
H	 2.634787	 -1.797805	 -0.723791
C	 0.169638	 0.576947	 -0.172193
H	 0.292246	 -1.382806	 -0.939173
H	 0.638862	 -1.294461	 0.758132
C	 -1.181007	 0.702076	 0.511045
O	 0.684434	 1.522401	 -0.689404
C	 -2.285896	 -0.139214	 -0.145167
H	 -1.449013	 1.751632	 0.493167
H	 -1.071097	 0.403384	 1.551904
C	 -3.651730	 0.085527	 0.506446
H	 -2.346558	 0.110550	 -1.202311
H	 -2.034699	 -1.195239	 -0.088760
C	 -4.759759	 -0.746301	 -0.137944
H	 -3.908724	 1.140198	 0.445742
H	 -3.588248	 -0.154077	 1.565670
H	 -4.868844	 -0.505085	 -1.191339
H	 -4.547971	 -1.809094	 -0.062252
H	 -5.715384	 -0.564740	 0.343403

@grid.dat /N
