%nprocshared=1
%mem=2GB
#HF/6-31G* nosymm scf=tight 

Mol

0 1
O	 0.160943	 1.130174	 -0.531303
C	 0.028650	 0.075053	 -0.000277
C	 -1.233602	 -0.752807	 0.000328
O	 0.998210	 -0.524954	 0.677841
C	 -2.501530	 0.091881	 0.000126
H	 -1.193807	 -1.406641	 -0.865785
H	 -1.193516	 -1.405779	 0.867015
H	 -2.545121	 0.729328	 -0.874513
H	 -3.377167	 -0.548497	 0.000561
H	 -2.544818	 0.730135	 0.874258
C	 2.240852	 0.149892	 0.755386
H	 2.653156	 0.300998	 -0.231825
H	 2.887399	 -0.488416	 1.337110
H	 2.123413	 1.107509	 1.241851

11 4 2 3 F

