%nprocshared=1
%mem=2GB
#HF/6-31G* nosymm scf=tight 

Mol

0 1
O	 -1.716809	 -3.417424	 -3.182569
C	 -2.385319	 -2.716513	 -2.485252
C	 -2.387973	 -1.209204	 -2.670505
C	 -3.282477	 -3.289279	 -1.410812
C	 -1.047154	 -0.600408	 -2.229242
H	 -3.187641	 -0.804232	 -2.059904
H	 -2.589694	 -0.951742	 -3.706386
C	 0.149006	 -1.302371	 -2.876593
H	 -1.054532	 0.453585	 -2.483071
H	 -0.955503	 -0.662267	 -1.145951
C	 0.075323	 -1.399736	 -4.404711
H	 0.247240	 -2.302033	 -2.457363
H	 1.057485	 -0.767858	 -2.606759
C	 -1.053427	 -2.288511	 -4.930067
H	 1.023541	 -1.787350	 -4.768483
H	 -0.024340	 -0.400645	 -4.824201
H	 -0.984148	 -3.291584	 -4.518035
H	 -1.004790	 -2.372263	 -6.011279
H	 -2.032469	 -1.894716	 -4.678683
H	 -2.920867	 -2.984506	 -0.432233
H	 -3.289314	 -4.368698	 -1.470756
H	 -4.294432	 -2.907604	 -1.511179

6 3 2 1 F

6 3 5 8 F

12 8 11 15 F

