%nprocshared=1
%mem=2GB
#HF/6-31G* nosymm scf=tight 

Mol

0 1
H	 2.456683	 -0.660438	 -0.000827
C	 1.741886	 0.146482	 -0.000262
O	 0.464886	 -0.454746	 -0.000158
H	 1.886490	 0.753508	 -0.886058
H	 1.887037	 0.752772	 0.885968
C	 -0.590998	 0.343045	 0.000118
O	 -1.699443	 -0.054298	 0.000227
H	 -0.340329	 1.404368	 0.000207
