%nprocshared=1
%mem=2GB
#HF/6-31G* nosymm scf=tight 

Mol

0 1
O	 -0.806752	 -1.114546	 1.082146
C	 -0.561929	 -0.074560	 0.531515
C	 -1.597472	 1.034011	 0.503089
N	 0.623947	 0.147590	 -0.102813
H	 -1.868528	 1.298769	 -0.513038
H	 -2.472791	 0.671041	 1.019920
H	 -1.237628	 1.928840	 0.999450
C	 1.847206	 0.096661	 0.673666
C	 0.742550	 0.765301	 -1.405354
H	 2.700619	 0.116567	 0.004855
H	 1.867413	 -0.810789	 1.251652
H	 1.921778	 0.945805	 1.349547
H	 1.611615	 0.361607	 -1.911118
H	 -0.118077	 0.560146	 -2.021929
H	 0.867436	 1.844215	 -1.333516

2 4 8 10 F

