%nprocshared=1
%mem=2GB
#HF/6-31G* nosymm scf=tight 

Mol

0 1
H	 -3.339396	 0.052830	 1.390637
O	 -3.085207	 -0.512168	 2.105645
C	 -2.523654	 -1.695585	 1.597475
C	 -1.130005	 -1.496524	 1.011946
H	 -2.474197	 -2.380743	 2.434008
H	 -3.182783	 -2.141228	 0.853344
C	 -0.185262	 -0.696373	 1.911995
H	 -0.699193	 -2.473209	 0.807362
H	 -1.233877	 -0.988708	 0.054501
C	 -0.599724	 0.771489	 2.047712
H	 0.823020	 -0.753134	 1.511357
H	 -0.155647	 -1.152105	 2.901829
C	 -2.087810	 0.996018	 2.340165
H	 -0.004642	 1.240722	 2.829086
H	 -0.348551	 1.288825	 1.124144
C	 -3.034785	 0.600176	 1.203932
H	 -2.351962	 0.423503	 3.226882
H	 -2.249811	 2.041785	 2.597000
C	 -4.465221	 1.099239	 1.418936
H	 -3.044660	 -0.484477	 1.106250
H	 -2.666261	 0.987989	 0.257311
C	 -5.411106	 0.710962	 0.283063
H	 -4.847259	 0.703375	 2.357459
H	 -4.456195	 2.181939	 1.526468
H	 -5.467273	 -0.368187	 0.171231
H	 -6.416738	 1.077069	 0.465559
H	 -5.076338	 1.123259	 -0.664726

14 10 7 4 F

14 10 13 16 F

10 7 4 8 F

8 4 3 2 F

20 16 19 22 F

4 3 2 1 F

