%nprocshared=1
%mem=2GB
#HF/6-31G* nosymm scf=tight 

Mol

0 1
H	 -0.944757	 -0.000069	 1.678017
O	 -0.042387	 -0.000390	 1.388199
C	 -0.001487	 0.000018	 -0.026623
C	 -1.340646	 0.493876	 -0.577440
C	 1.146245	 0.891113	 -0.505480
C	 0.241952	 -1.453011	 -0.418881
H	 -1.356968	 0.466624	 -1.662285
H	 -1.530084	 1.519794	 -0.270012
H	 -2.150409	 -0.123408	 -0.204263
H	 1.229951	 0.881758	 -1.587605
H	 0.990276	 1.921818	 -0.195231
H	 2.085808	 0.551915	 -0.083529
H	 0.289994	 -1.561796	 -1.497585
H	 -0.557552	 -2.081458	 -0.042936
H	 1.175316	 -1.804388	 0.006276
