%nprocshared=1
%mem=2GB
#HF/6-31G* nosymm scf=tight 

Mol

0 1
O	 -0.253722	 0.131800	 2.098422
C	 0.019178	 -0.477767	 1.114706
C	 1.206621	 -1.397709	 0.959945
O	 -0.698257	 -0.426125	 0.001050
C	 2.061223	 -1.486991	 2.217979
H	 1.785659	 -1.041306	 0.113223
H	 0.826750	 -2.372862	 0.670049
H	 2.451464	 -0.514905	 2.493888
H	 2.898067	 -2.157709	 2.054745
H	 1.483965	 -1.858822	 3.055737
C	 -1.853104	 0.406779	 0.000512
C	 -3.066105	 -0.499277	 -0.000959
H	 -1.828410	 1.043074	 -0.873618
H	 -1.829857	 1.042383	 0.875188
H	 -3.071820	 -1.133106	 -0.880383
H	 -3.972708	 0.097145	 -0.001528
H	 -3.073405	 -1.133813	 0.877999

4 2 3 6 F

11 4 2 3 F

