%nprocshared=1
%mem=2GB
#HF/6-31G* nosymm scf=tight 

Mol

0 1
H	 -3.457960	 0.166880	 1.449720
O	 -3.367910	 -0.300316	 2.267454
C	 -3.043259	 -1.643282	 2.012310
C	 -1.609705	 -1.833855	 1.529264
H	 -3.184960	 -2.163733	 2.950780
H	 -3.740919	 -2.074362	 1.295219
C	 -1.314720	 -1.174099	 0.179978
H	 -0.935821	 -1.437562	 2.284379
H	 -1.414703	 -2.902721	 1.459510
C	 -0.269741	 -1.939570	 -0.636657
H	 -0.970728	 -0.157227	 0.347328
H	 -2.236663	 -1.102401	 -0.397275
C	 -0.495065	 -3.454091	 -0.712774
H	 -0.232908	 -1.530147	 -1.644558
H	 0.710514	 -1.758890	 -0.200590
C	 -0.329871	 -4.197777	 0.615428
H	 -1.501370	 -3.631484	 -1.086538
H	 0.180917	 -3.881316	 -1.451939
C	 -0.667228	 -5.686639	 0.510947
H	 -0.969881	 -3.737289	 1.366727
H	 0.689755	 -4.093519	 0.978464
C	 -0.496986	 -6.432639	 1.833885
H	 -1.691501	 -5.799975	 0.162369
H	 -0.035401	 -6.146446	 -0.246191
H	 -1.140631	 -6.016929	 2.604034
H	 -0.745330	 -7.484162	 1.727768
H	 0.527095	 -6.369455	 2.191139

14 10 7 4 F

14 10 13 16 F

8 4 3 2 F

10 13 16 20 F

20 16 19 22 F

4 3 2 1 F

