%nprocshared=1
%mem=2GB
#HF/6-31G* nosymm scf=tight 

Mol

0 1
H	 -0.289610	 2.178005	 0.242750
C	 -0.114289	 1.262548	 0.798216
N	 -0.528168	 0.128977	 -0.000000
H	 -0.708458	 1.306994	 1.703768
H	 0.941545	 1.242386	 1.081189
C	 0.248044	 -0.037491	 -1.209632
H	 -0.482080	 -0.706157	 0.549049
H	 0.998722	 0.743888	 -1.266824
H	 -0.398417	 0.061950	 -2.074060
H	 0.763621	 -0.999315	 -1.275517
