%nprocshared=1
%mem=2GB
#HF/6-31G* nosymm scf=tight 

Mol

0 1
H	 -2.671323	 1.698636	 1.410382
C	 -2.099061	 0.917945	 1.907553
O	 -0.830664	 0.784496	 1.351947
H	 -1.972998	 1.184890	 2.947741
H	 -2.662018	 -0.012705	 1.849265
C	 -0.832474	 0.432873	 0.004502
C	 0.587304	 0.425549	 -0.511619
H	 -1.266740	 -0.559024	 -0.126832
H	 -1.422320	 1.137233	 -0.578562
O	 1.392611	 -0.295398	 0.366430
H	 0.605261	 -0.017128	 -1.505461
H	 0.943829	 1.453017	 -0.594634
C	 2.706965	 -0.449871	 -0.062409
H	 2.756559	 -0.644779	 -1.131878
H	 3.305899	 0.433456	 0.155466
H	 3.125548	 -1.294566	 0.467107

3 6 7 11 F

2 3 6 7 F

