%nprocshared=1
%mem=2GB
#HF/6-31G* nosymm scf=tight 

Mol

0 1
O	 1.066834	 -2.032293	 1.712165
C	 0.275803	 -1.645901	 0.914452
C	 -1.147444	 -2.120194	 0.804999
O	 0.550821	 -0.724572	 0.000672
H	 -1.823175	 -1.281819	 0.928282
H	 -1.339790	 -2.865528	 1.562212
H	 -1.318951	 -2.538157	 -0.180127
C	 1.781954	 -0.036778	 0.133080
H	 1.982122	 0.556037	 -0.747749
H	 2.535122	 -0.800280	 0.249489
H	 1.764853	 0.608248	 0.999678

2 4 8 9 F

