%nprocshared=1
%mem=2GB
#HF/6-31G* nosymm scf=tight 

Mol

0 1
O	 1.825465	 1.324323	 -0.951462
C	 0.788116	 1.716284	 -1.379704
C	 -0.516134	 0.957269	 -1.353318
O	 0.640172	 2.906476	 -1.947763
C	 -0.823008	 0.326187	 0.001381
H	 -1.299814	 1.647936	 -1.652547
H	 -0.470175	 0.205508	 -2.136556
C	 -0.301709	 1.169447	 1.165950
H	 -0.386395	 -0.666805	 0.040394
H	 -1.895436	 0.187995	 0.096831
C	 1.218278	 1.098131	 1.322197
H	 -0.598797	 2.207657	 1.025042
H	 -0.772500	 0.841902	 2.091667
C	 1.967313	 1.455898	 0.039154
H	 1.500323	 0.096168	 1.637889
H	 1.529047	 1.768001	 2.120843
H	 1.703505	 0.781129	 -0.770356
H	 3.041815	 1.396448	 0.181849
H	 1.732071	 2.466172	 -0.283829
C	 1.792514	 3.724689	 -2.034891
H	 2.180449	 3.940881	 -1.049855
H	 1.472688	 4.634305	 -2.518819
H	 2.560106	 3.239076	 -2.620117

15 11 8 12 F

9 5 8 12 F

1 2 3 6 F

1 2 4 20 F

