%nprocshared=1
%mem=2GB
#HF/6-31G* nosymm scf=tight 

Mol

0 1
O	 -1.276010	 1.052711	 -0.768302
C	 -1.204840	 0.067374	 -0.106123
C	 -2.388195	 -0.672128	 0.458071
O	 -0.067104	 -0.527208	 0.221609
H	 -2.388023	 -1.694060	 0.097175
H	 -3.300579	 -0.174919	 0.164318
H	 -2.315377	 -0.706351	 1.539059
C	 1.170111	 0.034140	 -0.238951
C	 0.979912	 0.302593	 -1.721296
C	 2.310614	 -0.929299	 0.050329
H	 1.331547	 0.961135	 0.291261
H	 0.149132	 0.979708	 -1.884290
H	 1.875384	 0.752182	 -2.137627
H	 0.778976	 -0.619926	 -2.255371
H	 3.246652	 -0.520358	 -0.316572
H	 2.410149	 -1.097816	 1.115069
H	 2.137077	 -1.880962	 -0.441840

8 4 2 1 F

