%nprocshared=1
%mem=2GB
#HF/6-31G* nosymm scf=tight 

Mol

0 1
H	 0.049115	 -0.706549	 2.123970
O	 0.625036	 -0.019651	 1.816824
C	 -0.142756	 0.990918	 1.230982
C	 -0.795902	 0.595680	 -0.067389
H	 0.531268	 1.822802	 1.061091
H	 -0.906957	 1.345968	 1.921605
C	 -1.522220	 -0.487727	 -0.255690
H	 -0.629918	 1.278203	 -0.886592
H	 -1.071454	 -1.449856	 -0.418625
H	 -2.596511	 -0.445958	 -0.267127

5 3 2 1 F

5 3 4 7 F

