%nprocshared=1
%mem=2GB
#HF/6-31G* nosymm scf=tight 

Mol

0 1
H	 -0.000158	 1.970498	 0.756846
O	 -0.000074	 1.880206	 -0.189275
C	 -0.000015	 0.544847	 -0.545111
C	 0.979758	 0.313062	 -1.690670
C	 -1.423662	 0.087776	 -0.845635
H	 0.351595	 -0.022756	 0.303594
F	 2.191884	 0.658448	 -1.312511
F	 1.014785	 -0.946798	 -2.069992
F	 0.658616	 1.051522	 -2.740976
F	 -2.174738	 0.249394	 0.222682
F	 -1.477493	 -1.180494	 -1.193445
F	 -1.952000	 0.806603	 -1.823246

7 4 3 6 F

