%nprocshared=1
%mem=2GB
#HF/6-31G* nosymm scf=tight 

Mol

0 1
H	 -1.836216	 1.387520	 -0.000064
C	 -1.301823	 0.443321	 -0.000031
O	 -0.003969	 0.658512	 0.000451
O	 -1.829879	 -0.616434	 -0.000857
C	 0.850537	 -0.484732	 0.000380
C	 0.044652	 -1.653828	 -0.523151
H	 1.201273	 -0.657818	 1.008519
H	 1.710090	 -0.278003	 -0.622297
H	 -0.816363	 -1.841197	 0.108179
H	 0.660047	 -2.547287	 -0.539071
H	 -0.305165	 -1.459695	 -1.530538

5 3 2 4 F

