%nprocshared=1
%mem=2GB
#HF/6-31G* nosymm scf=tight 

Mol

0 1
O	 -2.821601	 1.309235	 -0.001213
C	 -2.668563	 0.129746	 -0.000350
C	 -3.801572	 -0.864014	 -0.000442
O	 -1.481751	 -0.454642	 0.000584
H	 -4.417280	 -0.689587	 -0.874708
H	 -3.443784	 -1.883046	 -0.000565
H	 -4.417179	 -0.689832	 0.873954
C	 -0.334255	 0.388708	 0.000906
C	 0.891947	 -0.504646	 0.000751
H	 -0.365390	 1.025305	 -0.873475
H	 -0.365484	 1.024911	 0.875569
C	 1.335016	 -0.874737	 1.417506
H	 1.697750	 0.005196	 -0.520000
H	 0.670972	 -1.404186	 -0.567105
C	 2.571383	 -1.775435	 1.439062
H	 1.543336	 0.032379	 1.982156
H	 0.518513	 -1.375468	 1.934878
C	 3.014674	 -2.143954	 2.854177
H	 3.388398	 -1.276430	 0.922770
H	 2.364191	 -2.683428	 0.877199
H	 3.261705	 -1.257383	 3.431224
H	 3.892515	 -2.782174	 2.836672
H	 2.229957	 -2.675237	 3.385183

2 4 8 10 F

16 12 9 13 F

19 15 12 16 F

1 2 4 8 F

