%nprocshared=1
%mem=2GB
#HF/6-31G* nosymm scf=tight 

Mol

0 1
H	 -3.161837	 0.500524	 -0.000234
C	 -2.367097	 -0.232926	 -0.000000
O	 -1.158440	 0.455814	 -0.000122
H	 -2.468853	 -0.861886	 -0.882833
H	 -2.468942	 -0.861421	 0.883154
C	 -1.248823	 1.774206	 0.448820
C	 0.131713	 2.405209	 0.397633
H	 -1.638510	 1.798040	 1.467386
H	 -1.945354	 2.336201	 -0.174809
C	 0.128747	 3.856987	 0.874299
H	 0.804488	 1.811359	 1.008679
H	 0.499820	 2.345836	 -0.622010
H	 -0.213805	 3.936013	 1.902324
H	 1.125660	 4.282144	 0.826841
H	 -0.521270	 4.474268	 0.260421

11 7 6 8 F

8 6 3 2 F

