%nprocshared=1
%mem=2GB
#HF/6-31G* nosymm scf=tight 

Mol

0 1
H	 2.911820	 -0.256008	 -1.972176
O	 1.992048	 -0.458483	 -2.070313
C	 1.274963	 0.032683	 -1.036420
C	 1.861081	 0.735781	 0.008291
C	 -0.091579	 -0.186316	 -1.042231
H	 2.924733	 0.905114	 0.010889
C	 1.081110	 1.218974	 1.045518
H	 -0.545574	 -0.729245	 -1.848576
C	 -0.865228	 0.300799	 0.000000
H	 1.545991	 1.761650	 1.848491
C	 -0.285358	 1.004745	 1.047847
C	 -2.333960	 0.069074	 0.000000
H	 -0.893100	 1.379171	 1.852496
O	 -2.847347	 -1.003763	 0.000000
H	 -2.943845	 0.977528	 0.000000

4 3 2 1 F

