%nprocshared=1
%mem=2GB
#HF/6-31G* nosymm scf=tight 

Mol

0 1
H	 -0.821032	 -1.655889	 0.000000
O	 -1.037828	 -0.728600	 0.000000
C	 0.100509	 -0.036935	 0.000000
C	 1.132803	 -0.659283	 -0.896078
O	 0.244826	 0.949489	 0.644486
H	 1.336335	 -1.672333	 -0.568938
H	 2.037535	 -0.071189	 -0.868563
H	 0.752193	 -0.710956	 -1.909577
