%nprocshared=1
%mem=2GB
#HF/6-31G* nosymm scf=tight 

Mol

0 1
O	 -0.389695	 0.092980	 2.453461
C	 -0.833093	 0.610524	 1.479901
C	 -1.689737	 1.847648	 1.474314
O	 -0.632575	 0.154573	 0.251549
H	 -2.647636	 1.627754	 1.017121
H	 -1.833848	 2.193421	 2.486988
H	 -1.213112	 2.620317	 0.882227
C	 0.160891	 -1.019931	 0.106212
C	 1.589627	 -0.672828	 0.480843
H	 0.089836	 -1.367806	 -0.916050
H	 -0.238459	 -1.792301	 0.749618
C	 1.751280	 -0.174084	 1.918035
H	 1.932259	 0.092934	 -0.212082
H	 2.217068	 -1.545281	 0.318356
C	 1.044231	 -1.071390	 2.932887
H	 2.810513	 -0.118145	 2.160925
H	 1.362847	 0.836281	 1.993151
H	 1.172714	 -0.696403	 3.943289
H	 1.436157	 -2.084217	 2.903707
H	 -0.022262	 -1.124227	 2.733189

16 12 9 8 F

2 4 8 10 F

1 2 4 8 F

