%nprocshared=1
%mem=2GB
#HF/6-31G* nosymm scf=tight 

Mol

0 1
O	 -2.042549	 -1.228399	 -0.269030
C	 -1.653912	 -0.146171	 0.050137
C	 -0.332303	 0.024011	 0.778412
C	 -2.438579	 1.106236	 -0.272369
C	 0.335830	 -1.337102	 1.029095
H	 0.336099	 0.665020	 0.210320
H	 -0.539278	 0.506678	 1.727157
C	 -0.432779	 -2.193790	 2.036247
H	 1.352567	 -1.187382	 1.388139
H	 0.414457	 -1.863639	 0.082671
C	 -1.930699	 -2.253682	 1.739842
H	 -0.023866	 -3.201859	 2.039976
H	 -0.277315	 -1.796073	 3.036357
H	 -2.120211	 -2.679238	 0.758496
H	 -2.374052	 -1.262514	 1.761466
H	 -2.450159	 -2.864845	 2.471052
H	 -3.277823	 0.863061	 -0.908988
H	 -1.806773	 1.843019	 -0.759671
H	 -2.802853	 1.554979	 0.648059

11 8 5 9 F

9 5 3 2 F

