%nprocshared=1
%mem=2GB
#HF/6-31G* nosymm scf=tight 

Mol

0 1
H	 -0.216825	 0.021369	 -3.357402
C	 0.374198	 0.036393	 -2.447010
C	 -0.521757	 -0.028637	 -1.217342
H	 0.969602	 0.942322	 -2.434777
H	 1.053364	 -0.811668	 -2.481329
N	 0.263400	 0.031178	 0.000000
H	 -1.199035	 0.820290	 -1.219355
H	 -1.147901	 -0.924895	 -1.265384
C	 -0.521757	 -0.028637	 1.217342
H	 0.935769	 -0.712709	 0.000000
C	 0.263527	 0.523395	 2.399559
H	 -1.415665	 0.569532	 1.067313
H	 -0.862358	 -1.043718	 1.443714
H	 0.570407	 1.545198	 2.206929
H	 -0.335948	 0.505400	 3.304354
H	 1.157440	 -0.066656	 2.585062
