%nprocshared=1
%mem=2GB
#HF/6-31G* nosymm scf=tight 

Mol

0 1
H	 2.866480	 -0.465706	 0.876907
C	 2.405773	 -0.024801	 0.000000
N	 0.988830	 -0.304158	 0.000000
H	 2.866480	 -0.465706	 -0.876907
H	 2.629928	 1.045948	 0.000000
C	 0.190393	 0.885042	 0.232960
C	 0.631548	 -1.352567	 0.937633
H	 0.403597	 1.327919	 1.211174
H	 0.428550	 1.626063	 -0.523621
C	 -1.286598	 0.535319	 0.154330
H	 1.192738	 -2.250024	 0.697046
H	 0.876898	 -1.072743	 1.967197
C	 -0.857142	 -1.642951	 0.840316
H	 -1.897071	 1.390505	 0.413163
H	 -1.534738	 0.225503	 -0.859283
O	 -1.608939	 -0.482543	 1.059872
H	 -1.157851	 -2.358935	 1.593946
H	 -1.085076	 -2.055251	 -0.141022
