%nprocshared=1
%mem=2GB
#HF/6-31G* nosymm scf=tight opt=ModRedundant

Mol

0 1
H	 5.284000	 0.229000	 1.057000
C	 4.689000	 -0.178000	 0.245000
C	 3.200000	 -0.166000	 0.591000
H	 4.887000	 0.418000	 -0.641000
H	 5.040000	 -1.187000	 0.050000
C	 2.333000	 -0.740000	 -0.531000
H	 2.890000	 0.852000	 0.803000
H	 3.038000	 -0.741000	 1.501000
C	 0.839000	 -0.758000	 -0.206000
H	 2.488000	 -0.169000	 -1.440000
H	 2.650000	 -1.760000	 -0.740000
C	 0.185000	 0.615000	 -0.187000
H	 0.307000	 -1.344000	 -0.955000
H	 0.653000	 -1.257000	 0.743000
C	 -1.166000	 0.740000	 0.496000
O	 0.700000	 1.561000	 -0.703000
C	 -2.271000	 -0.102000	 -0.159000
H	 -1.434000	 1.790000	 0.478000
H	 -1.056000	 0.442000	 1.537000
C	 -3.637000	 0.123000	 0.492000
H	 -2.331000	 0.147000	 -1.217000
H	 -2.019000	 -1.158000	 -0.102000
C	 -4.745000	 -0.709000	 -0.152000
H	 -3.894000	 1.178000	 0.430000
H	 -3.574000	 -0.115000	 1.551000
H	 -4.853000	 -0.469000	 -1.206000
H	 -4.533000	 -1.772000	 -0.076000
H	 -5.700000	 -0.527000	 0.328000
