%nprocshared=1
%mem=2GB
#HF/6-31G* nosymm scf=tight 

Mol

0 1
H	 -1.488957	 -1.846925	 -1.183746
N	 -0.787443	 -1.135235	 -1.253417
C	 -0.563778	 -0.502042	 0.037919
H	 -1.120045	 -0.464998	 -1.920436
C	 0.575259	 0.508231	 -0.048326
H	 -0.297806	 -1.280921	 0.746299
H	 -1.454603	 -0.008773	 0.435235
C	 1.954651	 -0.143624	 0.035137
H	 0.475158	 1.060484	 -0.977307
H	 0.469181	 1.234488	 0.755973
H	 2.103292	 -0.853109	 -0.774172
H	 2.742821	 0.599562	 -0.030094
H	 2.083613	 -0.679371	 0.971560

1 2 3 6 F

