%nprocshared=24
%mem=2GB
#HF/6-31G* nosymm scf=tight 

Mol

0 1
H	 -0.888670	 0.551563	 0.412545
C	 -1.462692	 -0.347341	 0.527645
C	 -1.224516	 -1.150904	 1.538115
H	 -2.224808	 -0.566274	 -0.197483
O	 -0.058873	 -1.105489	 2.235090
H	 -1.939821	 -1.874959	 1.884974
C	 1.122280	 -0.938099	 1.529193
C	 1.575007	 -2.228300	 0.883472
H	 1.928985	 -0.573371	 2.155427
H	 0.937284	 -0.221590	 0.743120
F	 0.516023	 -2.913006	 0.476399
F	 2.338925	 -2.006426	 -0.172989
F	 2.253173	 -2.987911	 1.717973

11 8 7 9 F

3 5 7 9 F

6 3 2 1 F

