%nprocshared=1
%mem=2GB
#HF/6-31G* nosymm scf=tight 

Mol

0 1
H	 -2.798360	 -0.862255	 -0.071053
N	 -1.863561	 -0.715187	 0.256814
C	 -1.344686	 0.554728	 -0.219830
H	 -1.300452	 -1.461917	 -0.101532
C	 0.081427	 0.741154	 0.254071
H	 -1.362155	 0.656231	 -1.305829
H	 -1.952773	 1.354456	 0.191809
O	 0.659081	 1.775589	 -0.489802
H	 0.096275	 0.989573	 1.315064
H	 0.637927	 -0.182514	 0.111316
C	 2.005266	 1.998358	 -0.214609
H	 2.337977	 2.813533	 -0.842694
H	 2.158322	 2.272855	 0.827603
H	 2.606391	 1.117752	 -0.431382

6 3 2 4 F

5 8 11 13 F

11 8 5 3 F

