%nprocshared=1
%mem=2GB
#HF/6-31G* nosymm scf=tight 

Mol

0 1
H	 -3.161837	 0.500524	 -0.000234
C	 -2.367097	 -0.232926	 -0.000000
O	 -1.158440	 0.455814	 -0.000122
H	 -2.468853	 -0.861886	 -0.882833
H	 -2.468942	 -0.861421	 0.883154
C	 -0.117914	 -0.210599	 -0.649023
C	 1.134103	 0.645960	 -0.575388
H	 -0.385385	 -0.401605	 -1.689155
H	 0.057953	 -1.179367	 -0.179483
C	 2.331011	 -0.008102	 -1.264225
H	 0.919925	 1.608420	 -1.029767
H	 1.360245	 0.836087	 0.469318
H	 2.134049	 -0.184939	 -2.317961
H	 3.209979	 0.624054	 -1.196113
H	 2.577123	 -0.963234	 -0.808643

11 7 6 8 F

8 6 3 2 F

