%nprocshared=1
%mem=2GB
#HF/6-31G* nosymm scf=tight 

Mol

0 1
H	 -0.367348	 2.047014	 -0.308205
C	 0.352277	 1.337084	 0.083769
N	 -0.000016	 0.000074	 -0.335546
H	 1.328359	 1.600444	 -0.307950
H	 0.381933	 1.450534	 1.172486
C	 -0.016110	 -0.127678	 -1.774882
C	 0.838426	 -0.999423	 0.285887
H	 -0.352713	 -1.120225	 -2.052192
H	 -0.708195	 0.590395	 -2.200151
H	 0.965875	 0.036985	 -2.230377
H	 0.770068	 -0.917863	 1.364798
H	 0.500191	 -1.990197	 0.004102
H	 1.892908	 -0.908446	 0.005318
