%nprocshared=1
%mem=2GB
#HF/6-31G* nosymm scf=tight 

Mol

0 1
O	 -1.276010	 1.052711	 -0.768302
C	 -1.204840	 0.067374	 -0.106123
C	 -2.388195	 -0.672128	 0.458071
O	 -0.067104	 -0.527208	 0.221609
H	 -2.388023	 -1.694060	 0.097175
H	 -3.300579	 -0.174919	 0.164318
H	 -2.315377	 -0.706351	 1.539059
C	 1.170111	 0.034140	 -0.238951
C	 0.844155	 0.754378	 -1.535330
C	 2.201479	 -1.069636	 -0.413891
H	 1.511816	 0.738935	 0.504694
H	 0.095250	 1.520540	 -1.369847
H	 1.735542	 1.226864	 -1.934729
H	 0.463692	 0.058533	 -2.275397
H	 3.133304	 -0.654306	 -0.784322
H	 2.402262	 -1.560586	 0.529841
H	 1.849106	 -1.808266	 -1.126819

8 4 2 1 F

