%nprocshared=1
%mem=2GB
#HF/6-31G* nosymm scf=tight 

Mol

0 1
O	 -0.052661	 0.876195	 -1.401244
C	 0.788116	 1.716284	 -1.379704
C	 2.142139	 1.587296	 -0.725601
O	 0.640172	 2.906476	 -1.947763
C	 2.852868	 0.278378	 -1.056120
H	 2.734083	 2.445215	 -1.032668
H	 1.996945	 1.696902	 0.345671
C	 2.950437	 0.035331	 -2.562927
H	 2.325669	 -0.544109	 -0.583083
H	 3.846470	 0.290716	 -0.619186
C	 1.615842	 -0.370588	 -3.190578
H	 3.317783	 0.935460	 -3.053663
H	 3.689028	 -0.740442	 -2.759250
C	 0.490232	 0.618526	 -2.890736
H	 1.334962	 -1.357755	 -2.830371
H	 1.738652	 -0.462739	 -4.267408
H	 0.319739	 0.706580	 -1.821441
H	 -0.442080	 0.303588	 -3.349059
H	 0.726874	 1.608892	 -3.269532
C	 1.792514	 3.724689	 -2.034891
H	 2.180449	 3.940881	 -1.049855
H	 1.472688	 4.634305	 -2.518819
H	 2.560106	 3.239076	 -2.620117

15 11 8 12 F

9 5 8 12 F

1 2 3 6 F

9 5 3 6 F

