%nprocshared=1
%mem=2GB
#HF/6-31G* nosymm scf=tight 

Mol

0 1
O	 1.825848	 1.323617	 -0.953040
C	 0.788116	 1.716284	 -1.379704
C	 -0.516668	 0.958268	 -1.351085
O	 0.640172	 2.906476	 -1.947763
C	 -0.821860	 0.327689	 0.004227
H	 -1.300298	 1.649473	 -1.649201
H	 -0.472532	 0.206317	 -2.134246
C	 -0.757294	 1.344224	 1.145081
H	 -0.120187	 -0.479556	 0.189157
H	 -1.805887	 -0.129471	 -0.027481
C	 0.673131	 1.751981	 1.502125
H	 -1.325583	 2.232628	 0.873452
H	 -1.242853	 0.931439	 2.028100
C	 1.465773	 2.262410	 0.299448
H	 1.190108	 0.901594	 1.941120
H	 0.646064	 2.521728	 2.270170
H	 1.540201	 1.501962	 -0.472817
H	 2.474799	 2.543587	 0.584505
H	 0.991532	 3.134769	 -0.141456
C	 1.792514	 3.724689	 -2.034891
H	 2.180449	 3.940881	 -1.049855
H	 1.472688	 4.634305	 -2.518819
H	 2.560106	 3.239076	 -2.620117

15 11 8 12 F

9 5 8 12 F

1 2 3 6 F

9 5 3 6 F

