%nprocshared=1
%mem=2GB
#HF/6-31G* nosymm scf=tight 

Mol

0 1
H	 -0.340328	 -1.240495	 -0.759768
N	 -0.626943	 -0.667432	 -0.000092
C	 -1.979713	 -0.158776	 0.000050
C	 0.268730	 -0.404563	 0.982169
H	 -2.520245	 -0.492427	 -0.879443
H	 -1.934741	 0.918111	 -0.004428
H	 -2.517790	 -0.485056	 0.883818
C	 1.629706	 -1.039923	 0.779566
O	 0.015449	 0.274999	 1.938338
H	 2.081762	 -0.690254	 -0.143327
H	 2.265693	 -0.775784	 1.611099
H	 1.543578	 -2.120502	 0.722394

3 2 4 9 F

