%nprocshared=1
%mem=2GB
#HF/6-31G* nosymm scf=tight 
prop=(read,field)

Mol

0 1
H	 -2.756471	 -0.644785	 1.131877
C	 -2.706972	 -0.449916	 0.062430
O	 -1.392607	 -0.295453	 -0.366433
H	 -3.125612	 -1.294640	 -0.467026
H	 -3.305982	 0.433358	 -0.155382
C	 -0.719715	 0.768330	 0.229244
C	 0.719720	 0.768322	 -0.229267
H	 -1.185038	 1.714308	 -0.050570
H	 -0.750528	 0.687183	 1.313896
O	 1.392611	 -0.295452	 0.366430
H	 0.750534	 0.687146	 -1.313918
H	 1.185043	 1.714305	 0.050526
C	 2.706965	 -0.449925	 -0.062409
H	 2.756559	 -0.644833	 -1.131878
H	 3.305899	 0.433402	 0.155466
H	 3.125548	 -1.294620	 0.467107

@grid.dat /N
