%nprocshared=1
%mem=2GB
#HF/6-31G* nosymm scf=tight 

Mol

0 1
H	 -2.673248	 0.300840	 0.749045
O	 -1.729233	 0.313590	 0.687852
C	 -1.334986	 1.137112	 -0.380060
C	 -1.523933	 2.622945	 -0.094886
H	 -0.285666	 0.926611	 -0.542208
H	 -1.864648	 0.859849	 -1.290753
C	 -0.984520	 3.068918	 1.266367
H	 -1.037146	 3.190155	 -0.883985
H	 -2.587821	 2.846774	 -0.153284
C	 -1.788215	 2.496400	 2.437314
H	 -0.993939	 4.154186	 1.316054
H	 0.056330	 2.759495	 1.362432
C	 -2.087810	 0.996018	 2.340165
H	 -1.259453	 2.698294	 3.367098
H	 -2.732666	 3.032405	 2.503717
C	 -3.034785	 0.600176	 1.203932
H	 -1.146192	 0.467492	 2.206627
H	 -2.496676	 0.649059	 3.287945
C	 -4.465221	 1.099239	 1.418936
H	 -3.044660	 -0.484477	 1.106250
H	 -2.666261	 0.987989	 0.257311
C	 -5.411106	 0.710962	 0.283063
H	 -4.847259	 0.703375	 2.357459
H	 -4.456195	 2.181939	 1.526468
H	 -5.467273	 -0.368187	 0.171231
H	 -6.416738	 1.077069	 0.465559
H	 -5.076338	 1.123259	 -0.664726

14 10 7 4 F

14 10 13 16 F

10 7 4 8 F

8 4 3 2 F

20 16 19 22 F

4 3 2 1 F

