%nprocshared=1
%mem=2GB
#HF/6-31G* nosymm scf=tight 

Mol

0 1
H	 -1.070890	 -1.366565	 0.180696
O	 -1.422729	 -0.573567	 -0.196946
C	 -0.731407	 0.539437	 0.309156
C	 0.680193	 0.672443	 -0.251532
H	 -1.319765	 1.404033	 0.030086
H	 -0.700012	 0.506517	 1.397677
C	 0.839083	 1.823126	 -1.245709
H	 1.370050	 0.806882	 0.576520
H	 0.943795	 -0.264965	 -0.736630
H	 0.653587	 2.783409	 -0.773860
H	 1.845877	 1.853768	 -1.648690
H	 0.152848	 1.719792	 -2.082768

1 2 3 4 F

