%nprocshared=1
%mem=2GB
#HF/6-31G* nosymm scf=tight 

Mol

0 1
H	 -2.084360	 2.148882	 -0.808845
C	 -1.700839	 1.204179	 -0.471468
C	 -2.556029	 0.193168	 -0.067172
C	 -0.340523	 0.984478	 -0.436530
H	 -3.620215	 0.344990	 -0.087181
C	 -2.048387	 -1.017820	 0.364726
H	 0.346983	 1.745109	 -0.742394
C	 0.154804	 -0.237046	 -0.000077
H	 -2.728483	 -1.789724	 0.674129
C	 -0.680678	 -1.279401	 0.415246
N	 1.611208	 -0.370857	 -0.000034
C	 -0.236424	 -2.640270	 0.904742
O	 2.274126	 0.622059	 -0.008063
O	 2.068510	 -1.474748	 0.007823
H	 0.387559	 -2.562084	 1.784322
H	 -1.110001	 -3.231098	 1.150017
H	 0.337447	 -3.165114	 0.153520
