%nprocshared=1
%mem=2GB
#HF/6-31G* nosymm scf=tight 

Mol

0 1
H	 1.885453	 2.371502	 -0.484549
N	 1.062768	 1.807169	 -0.575273
C	 1.267428	 0.496480	 0.024474
H	 0.878821	 1.719347	 -1.556785
C	 -0.016086	 -0.325158	 -0.029487
H	 1.552043	 0.649038	 1.061178
H	 2.078446	 -0.067487	 -0.443042
C	 -1.282277	 0.529072	 0.046735
H	 -0.012495	 -0.908639	 -0.945788
H	 -0.015903	 -1.041248	 0.791956
C	 -2.563920	 -0.301775	 -0.006060
H	 -1.284084	 1.244622	 -0.773004
H	 -1.271387	 1.115393	 0.963286
H	 -2.621848	 -0.873522	 -0.927727
H	 -3.445135	 0.329952	 0.047812
H	 -2.609542	 -1.004582	 0.821105

12 8 5 9 F

1 2 3 6 F

