%nprocshared=1
%mem=2GB
#HF/6-31G* nosymm scf=tight 

Mol

0 1
H	 2.383489	 -0.938493	 -1.630867
O	 1.733645	 -1.180223	 -0.978136
C	 0.759986	 -0.270951	 -1.007157
C	 -0.318135	 -0.576402	 0.000164
O	 0.779848	 0.653181	 -1.753201
C	 -1.454360	 0.441875	 -0.000474
H	 -0.685339	 -1.577108	 -0.211386
H	 0.157204	 -0.636119	 0.975607
C	 -2.826123	 -0.230780	 0.000056
H	 -1.357605	 1.085198	 -0.868380
H	 -1.357504	 1.086451	 0.866496
H	 -2.959731	 -0.858053	 -0.876869
H	 -3.619374	 0.509403	 -0.000080
H	 -2.959371	 -0.857318	 0.877556

2 3 4 7 F

1 2 3 5 F

