%nprocshared=24
%mem=2GB
#HF/6-31G* nosymm scf=tight 

Mol

0 1
H	 -2.463887	 -1.404751	 3.174456
C	 -2.393282	 -1.145213	 2.135980
C	 -1.224516	 -1.150904	 1.538115
H	 -3.292956	 -0.884230	 1.609638
O	 -0.973855	 -1.931273	 0.454255
H	 -0.407101	 -0.528655	 1.855712
C	 0.329901	 -2.011811	 -0.009607
C	 0.712053	 -0.791847	 -0.817187
H	 0.495250	 -2.889024	 -0.625339
H	 0.982562	 -2.058155	 0.849116
F	 0.137816	 0.281389	 -0.293362
F	 2.018972	 -0.589749	 -0.811947
F	 0.324780	 -0.887757	 -2.071831

11 8 7 9 F

3 5 7 9 F

6 3 5 7 F

