%nprocshared=1
%mem=2GB
#HF/6-31G* nosymm scf=tight 

Mol

0 1
H	 1.385766	 2.442773	 -2.456225
O	 0.684455	 2.216416	 -1.862412
C	 1.179300	 1.389642	 -0.839310
C	 0.031547	 1.023609	 0.088541
H	 1.949085	 1.907610	 -0.270073
H	 1.634168	 0.494838	 -1.258264
C	 -1.134819	 0.293262	 -0.585751
H	 -0.338989	 1.939583	 0.540184
H	 0.431732	 0.412958	 0.896115
C	 -1.917817	 -0.639439	 0.339494
H	 -0.758119	 -0.268455	 -1.433105
H	 -1.813832	 1.041889	 -0.986690
H	 -2.777680	 -1.057197	 -0.174994
H	 -1.310268	 -1.471279	 0.680599
H	 -2.283753	 -0.111424	 1.216626

2 3 4 8 F

1 2 3 4 F

