%nprocshared=1
%mem=2GB
#HF/6-31G* nosymm scf=tight 

Mol

0 1
H	 -0.000158	 1.970498	 0.756846
O	 -0.000074	 1.880206	 -0.189275
C	 -0.000015	 0.544847	 -0.545111
C	 -1.146713	 -0.178430	 0.153418
C	 1.372058	 -0.064025	 -0.275501
H	 -0.178470	 0.486751	 -1.608540
F	 -1.088646	 0.047830	 1.448401
F	 -2.324548	 0.220767	 -0.277518
F	 -1.060729	 -1.485986	 -0.032328
F	 2.283717	 0.570380	 -0.981153
F	 1.423530	 -1.339565	 -0.596012
F	 1.696156	 0.053849	 1.002248

6 3 2 1 F

