%nprocshared=1
%mem=2GB
#HF/6-31G* nosymm scf=tight 

Mol

0 1
H	 3.299469	 -0.432053	 -0.021001
C	 2.239653	 -0.249868	 -0.016486
C	 1.564583	 -0.133822	 1.192511
C	 1.556261	 -0.132392	 -1.215299
H	 2.102055	 -0.226215	 2.118855
C	 0.203541	 0.100144	 1.201921
H	 2.081823	 -0.222737	 -2.148501
C	 0.190845	 0.102326	 -1.204515
H	 -0.336624	 0.192999	 2.125366
C	 -0.488460	 0.219100	 0.000000
H	 -0.345928	 0.194599	 -2.133120
C	 -1.949954	 0.470334	 0.000000
O	 -2.781584	 -0.381627	 0.000000
H	 -2.238022	 1.526388	 0.000000
