%nprocshared=1
%mem=2GB
#HF/6-31G* nosymm scf=tight 

Mol

0 1
H	 -2.577606	 0.247184	 1.509904
O	 -1.840915	 -0.185680	 1.103718
C	 -2.061112	 -1.573124	 1.079922
C	 -3.392833	 -1.981143	 1.700219
H	 -2.042482	 -1.856194	 0.035318
H	 -1.242346	 -2.097380	 1.571408
C	 -4.585311	 -1.153783	 1.214072
H	 -3.565898	 -3.032341	 1.484817
H	 -3.305559	 -1.889035	 2.781545
C	 -4.532410	 0.299039	 1.695037
H	 -5.505586	 -1.616890	 1.559023
H	 -4.616010	 -1.168386	 0.124492
C	 -3.174318	 0.987479	 1.516224
H	 -5.298523	 0.875040	 1.179149
H	 -4.794578	 0.323873	 2.750666
C	 -2.046403	 0.423067	 2.384398
H	 -2.883106	 0.902543	 0.471333
H	 -3.282730	 2.052924	 1.713486
C	 -2.243967	 0.704580	 3.875423
H	 -1.097523	 0.849422	 2.061970
H	 -1.963166	 -0.651150	 2.237999
C	 -3.649497	 0.361327	 4.367692
H	 -1.512949	 0.138333	 4.448541
H	 -2.038931	 1.754618	 4.073577
H	 -3.873005	 -0.690532	 4.213228
H	 -3.757343	 0.569901	 5.427645
H	 -4.402525	 0.939078	 3.838998

14 10 7 4 F

14 10 13 16 F

10 7 4 8 F

8 4 3 2 F

10 13 16 20 F

20 16 19 22 F

