%nprocshared=1
%mem=2GB
#HF/6-31G* nosymm scf=tight 

Mol

0 1
H	 1.087746	 -2.299327	 1.191514
C	 1.165267	 -1.298774	 1.633879
C	 -0.081923	 -0.458055	 1.540902
O	 2.181421	 -0.947016	 2.139672
C	 -0.558097	 -0.297372	 0.091132
H	 0.121037	 0.502831	 1.999144
H	 -0.859212	 -0.951645	 2.123158
C	 -1.850991	 0.512573	 -0.019058
H	 0.222364	 0.187321	 -0.490870
H	 -0.709954	 -1.279278	 -0.353455
C	 -3.096943	 -0.368295	 -0.099594
H	 -1.800724	 1.150330	 -0.898172
H	 -1.931651	 1.177355	 0.838044
H	 -3.060452	 -1.020287	 -0.967456
H	 -3.996858	 0.233488	 -0.175704
H	 -3.191959	 -0.995686	 0.782074

6 3 5 9 F

4 2 3 6 F

