%nprocshared=1
%mem=2GB
#HF/6-31G* nosymm scf=tight 

Mol

0 1
H	 -3.457960	 0.166880	 1.449720
O	 -3.367910	 -0.300316	 2.267454
C	 -3.043259	 -1.643282	 2.012310
C	 -1.609705	 -1.833855	 1.529264
H	 -3.184960	 -2.163733	 2.950780
H	 -3.740919	 -2.074362	 1.295219
C	 -0.639000	 -0.757343	 2.020916
H	 -1.264008	 -2.812231	 1.852745
H	 -1.617293	 -1.844014	 0.440592
C	 -0.918371	 0.616564	 1.405165
H	 0.377942	 -1.059784	 1.786983
H	 -0.701899	 -0.681622	 3.106573
C	 -2.391057	 1.042305	 1.421945
H	 -0.320867	 1.367378	 1.919084
H	 -0.573733	 0.609869	 0.373234
C	 -3.313873	 0.205967	 0.531198
H	 -2.752016	 0.983783	 2.446689
H	 -2.465518	 2.090221	 1.135302
C	 -4.786587	 0.600197	 0.662089
H	 -3.200883	 -0.846940	 0.785619
H	 -3.016159	 0.301410	 -0.510224
C	 -5.709184	 -0.228797	 -0.230798
H	 -5.096992	 0.493190	 1.699242
H	 -4.899950	 1.654373	 0.417657
H	 -5.643150	 -1.285799	 0.011296
H	 -6.745523	 0.072858	 -0.114005
H	 -5.447846	 -0.114121	 -1.279089

14 10 7 4 F

14 10 13 16 F

10 7 4 8 F

10 13 16 20 F

20 16 19 22 F

4 3 2 1 F

