%nprocshared=1
%mem=2GB
#HF/6-31G* nosymm scf=tight 

Mol

0 1
H	 -3.457960	 0.166880	 1.449720
O	 -3.367910	 -0.300316	 2.267454
C	 -3.043259	 -1.643282	 2.012310
C	 -1.609705	 -1.833855	 1.529264
H	 -3.184960	 -2.163733	 2.950780
H	 -3.740919	 -2.074362	 1.295219
C	 -1.314720	 -1.174099	 0.179978
H	 -0.935821	 -1.437562	 2.284379
H	 -1.414703	 -2.902721	 1.459510
C	 -1.012656	 0.321740	 0.306629
H	 -2.164716	 -1.317891	 -0.481231
H	 -0.465285	 -1.671587	 -0.288323
C	 -0.019143	 0.686376	 1.415823
H	 -0.640599	 0.693757	 -0.646275
H	 -1.945981	 0.848649	 0.493638
C	 -0.523779	 0.438550	 2.840043
H	 0.889605	 0.107521	 1.264432
H	 0.268140	 1.731581	 1.311648
C	 0.538368	 0.717100	 3.905731
H	 -0.857305	 -0.594467	 2.928073
H	 -1.394335	 1.058020	 3.041763
C	 0.035249	 0.476661	 5.328659
H	 1.407710	 0.090031	 3.719943
H	 0.879845	 1.746026	 3.813056
H	 -0.283520	 -0.553174	 5.463010
H	 0.810962	 0.680609	 6.060308
H	 -0.812244	 1.116369	 5.558644

14 10 7 4 F

14 10 13 16 F

8 4 3 2 F

10 13 16 20 F

20 16 19 22 F

4 3 2 1 F

