%nprocshared=1
%mem=2GB
#HF/6-31G* nosymm scf=tight 

Mol

0 1
H	 -2.698709	 -0.000305	 0.034435
C	 -1.693833	 0.000034	 0.434417
O	 -0.828952	 -0.000968	 -0.659236
H	 -1.574200	 0.882896	 1.055746
H	 -1.574147	 -0.881698	 1.057355
C	 0.559449	 -0.000018	 -0.420814
C	 1.354518	 -0.576663	 -1.590541
C	 1.077785	 1.369194	 0.014555
H	 0.665684	 -0.677141	 0.418382
H	 0.928208	 -1.523241	 -1.904863
H	 2.383332	 -0.749372	 -1.290625
H	 1.372008	 0.092331	 -2.445120
H	 0.459535	 1.769757	 0.810654
H	 2.094411	 1.280553	 0.384796
H	 1.089671	 2.083079	 -0.802799

6 3 2 1 F

