%nprocshared=1
%mem=2GB
#HF/6-31G* nosymm scf=tight 

Mol

0 1
O	 -0.682937	 1.318834	 -0.186099
C	 -0.860635	 0.152188	 -0.042321
C	 -2.173363	 -0.477127	 0.338347
O	 0.083258	 -0.765189	 -0.202595
H	 -2.477673	 -1.180929	 -0.427595
H	 -2.923125	 0.290956	 0.455536
H	 -2.058825	 -1.029004	 1.264191
C	 1.392086	 -0.334687	 -0.569248
C	 1.411524	 0.260299	 -1.965049
H	 2.075091	 -1.166558	 -0.487787
H	 1.650650	 0.407842	 0.171897
H	 2.401786	 0.646884	 -2.185644
H	 1.165903	 -0.488798	 -2.707271
H	 0.702078	 1.077165	 -2.041412

10 8 4 2 F

