%nprocshared=1
%mem=2GB
#HF/6-31G* nosymm scf=tight opt=ModRedundant

Mol

0 1
H	 -3.375000	 -0.317000	 1.469000
C	 -3.417000	 -0.305000	 0.373000
C	 -2.768000	 0.892000	 -0.276000
O	 -3.951000	 -1.188000	 -0.215000
C	 -1.328000	 1.115000	 0.206000
H	 -2.814000	 0.764000	 -1.351000
H	 -3.371000	 1.762000	 -0.017000
C	 -0.360000	 0.013000	 -0.232000
H	 -0.982000	 2.071000	 -0.174000
H	 -1.320000	 1.200000	 1.292000
C	 1.074000	 0.256000	 0.242000
H	 -0.376000	 -0.064000	 -1.317000
H	 -0.703000	 -0.950000	 0.142000
C	 2.042000	 -0.842000	 -0.209000
H	 1.409000	 1.222000	 -0.128000
H	 1.088000	 0.322000	 1.329000
C	 3.473000	 -0.688000	 0.318000
H	 2.062000	 -0.879000	 -1.297000
H	 1.654000	 -1.804000	 0.120000
C	 4.218000	 0.537000	 -0.214000
H	 4.035000	 -1.580000	 0.051000
H	 3.455000	 -0.656000	 1.405000
H	 4.241000	 0.539000	 -1.301000
H	 3.758000	 1.465000	 0.108000
H	 5.246000	 0.545000	 0.137000
