%nprocshared=1
%mem=2GB
#HF/6-31G* nosymm scf=tight 

Mol

0 1
O	 2.178859	 -2.336148	 -4.567550
C	 2.802577	 -1.427828	 -4.108895
C	 2.673310	 -1.056958	 -2.641907
C	 3.770909	 -0.625379	 -4.949004
C	 1.297018	 -0.436198	 -2.352737
H	 3.450569	 -0.335236	 -2.415434
H	 2.827185	 -1.928673	 -2.012254
C	 0.149006	 -1.302371	 -2.876593
H	 1.209092	 -0.292743	 -1.281722
H	 1.237414	 0.551132	 -2.808121
C	 0.075323	 -1.399736	 -4.404711
H	 -0.794193	 -0.915233	 -2.495507
H	 0.253239	 -2.306183	 -2.469965
C	 -1.053427	 -2.288511	 -4.930067
H	 1.023541	 -1.787350	 -4.768483
H	 -0.024340	 -0.400645	 -4.824201
H	 -0.984148	 -3.291584	 -4.518035
H	 -1.004790	 -2.372263	 -6.011279
H	 -2.032469	 -1.894716	 -4.678683
H	 3.408851	 0.394433	 -5.049807
H	 3.867480	 -1.070539	 -5.929458
H	 4.744234	 -0.573514	 -4.469678

6 3 2 1 F

6 3 5 8 F

3 5 8 12 F

