%nprocshared=1
%mem=2GB
#HF/6-31G* nosymm scf=tight opt=ModRedundant

Mol

0 1
H	 2.959000	 -0.392000	 -0.000000
O	 2.121000	 -0.845000	 -0.000000
C	 1.155000	 0.073000	 0.000000
C	 -0.213000	 -0.557000	 0.000000
O	 1.390000	 1.238000	 0.000000
C	 -1.350000	 0.462000	 -0.000000
H	 -0.270000	 -1.211000	 -0.866000
H	 -0.270000	 -1.210000	 0.867000
C	 -2.721000	 -0.211000	 0.000000
H	 -1.253000	 1.105000	 -0.868000
H	 -1.253000	 1.106000	 0.867000
H	 -2.855000	 -0.839000	 -0.877000
H	 -3.515000	 0.529000	 -0.001000
H	 -2.855000	 -0.837000	 0.878000
