%nprocshared=1
%mem=2GB
#HF/6-31G* nosymm scf=tight 

Mol

0 1
O	 -0.973332	 -1.361380	 0.361649
C	 -0.663454	 -0.218554	 0.155184
C	 -1.722292	 0.868144	 0.149229
N	 0.623947	 0.147590	 -0.102813
H	 -1.762409	 1.378780	 -0.806660
H	 -2.673108	 0.393053	 0.337065
H	 -1.537478	 1.609391	 0.919280
C	 1.665360	 -0.855771	 0.000151
C	 1.085436	 1.518088	 -0.134560
H	 2.465253	 -0.618490	 -0.692587
H	 1.257730	 -1.821716	 -0.242189
H	 2.081488	 -0.891645	 1.004627
H	 1.899455	 1.601472	 -0.844813
H	 0.305792	 2.192332	 -0.451553
H	 1.452629	 1.845753	 0.836326

8 4 2 3 F

