%nprocshared=1
%mem=2GB
#HF/6-31G* nosymm scf=tight 

Mol

0 1
H	 6.040869	 -6.054769	 3.940695
C	 6.081890	 -6.268902	 2.877217
C	 7.039859	 -5.319273	 2.159112
H	 6.396525	 -7.301632	 2.759677
H	 5.072818	 -6.183017	 2.483266
C	 7.116304	 -5.589664	 0.654832
H	 8.029669	 -5.412223	 2.594129
H	 6.718609	 -4.292002	 2.324052
C	 5.749638	 -5.735352	 -0.014695
H	 7.663147	 -4.789429	 0.168795
H	 7.678634	 -6.505374	 0.486605
C	 4.964761	 -4.436609	 -0.126394
H	 5.875672	 -6.109476	 -1.029543
H	 5.142446	 -6.477555	 0.498753
C	 3.475324	 -4.538016	 -0.405696
O	 5.496655	 -3.372775	 -0.017991
C	 3.142513	 -5.197708	 -1.752249
H	 3.077758	 -3.530724	 -0.373804
H	 3.010537	 -5.105855	 0.398180
C	 3.906992	 -6.506058	 -1.962969
H	 2.073565	 -5.394231	 -1.800676
H	 3.371148	 -4.517137	 -2.568350
C	 3.584233	 -7.172245	 -3.299729
H	 3.675183	 -7.191428	 -1.151430
H	 4.975620	 -6.311267	 -1.903941
H	 2.526789	 -7.408725	 -3.374670
H	 3.837980	 -6.523738	 -4.133494
H	 4.139105	 -8.097216	 -3.419829

10 6 3 2 F

16 12 15 17 F

