%nprocshared=1
%mem=2GB
#HF/6-31G* nosymm scf=tight 

Mol

0 1
O	 -1.276010	 1.052711	 -0.768302
C	 -1.204840	 0.067374	 -0.106123
C	 -2.388195	 -0.672128	 0.458071
O	 -0.067104	 -0.527208	 0.221609
H	 -2.388023	 -1.694060	 0.097175
H	 -3.300579	 -0.174919	 0.164318
H	 -2.315377	 -0.706351	 1.539059
C	 1.170111	 0.034140	 -0.238951
C	 1.805728	 -1.025417	 -1.121515
C	 2.036007	 0.415416	 0.951635
H	 0.938955	 0.915009	 -0.819591
H	 1.150701	 -1.279347	 -1.947170
H	 2.743386	 -0.660350	 -1.527538
H	 2.005810	 -1.927804	 -0.553783
H	 2.983449	 0.819706	 0.609699
H	 1.546690	 1.167817	 1.556975
H	 2.238147	 -0.455027	 1.567652

8 4 2 1 F

