%nprocshared=1
%mem=2GB
#HF/6-31G* nosymm scf=tight 

Mol

0 1
H	 -2.651017	 0.020315	 -0.185725
C	 -1.664044	 -0.427420	 -0.192230
C	 -0.603454	 0.661669	 0.000000
H	 -1.527107	 -0.939957	 -1.136684
H	 -1.615800	 -1.160753	 0.603594
C	 0.763625	 0.112519	 0.000000
H	 -0.665025	 1.400899	 -0.790138
H	 -0.753156	 1.181502	 0.939113
N	 1.813038	 -0.320305	 0.000000
