%nprocshared=1
%mem=2GB
#HF/6-31G* nosymm scf=tight opt=ModRedundant

Mol

0 1
H	 -2.626000	 -0.646000	 1.264000
C	 -2.063000	 -0.388000	 0.389000
O	 -0.787000	 -0.131000	 0.764000
F	 -2.098000	 -1.387000	 -0.490000
F	 -2.601000	 0.667000	 -0.214000
C	 0.105000	 0.270000	 -0.214000
C	 1.374000	 -0.550000	 -0.022000
Cl	 0.455000	 2.001000	 -0.078000
H	 -0.269000	 0.089000	 -1.207000
F	 2.270000	 -0.231000	 -0.932000
F	 1.081000	 -1.827000	 -0.168000
F	 1.900000	 -0.379000	 1.166000
