%nprocshared=1
%mem=2GB
#HF/6-31G* nosymm scf=tight 

Mol

0 1
H	 -2.610957	 -0.470610	 1.588697
C	 -2.562881	 -0.639573	 0.514788
O	 -1.264744	 -0.498286	 0.034980
H	 -2.879629	 -1.651941	 0.305210
H	 -3.248270	 0.051487	 0.025803
C	 -0.719715	 0.768384	 0.229244
C	 0.719720	 0.768376	 -0.229267
H	 -1.277725	 1.511702	 -0.341545
H	 -0.761576	 1.050930	 1.279206
O	 1.392611	 -0.295398	 0.366430
H	 0.750534	 0.687200	 -1.313918
H	 1.185043	 1.714359	 0.050526
C	 2.706965	 -0.449871	 -0.062409
H	 2.756559	 -0.644779	 -1.131878
H	 3.305899	 0.433456	 0.155466
H	 3.125548	 -1.294566	 0.467107

7 10 13 14 F

2 3 6 7 F

