%nprocshared=1
%mem=2GB
#HF/6-31G* nosymm scf=tight 

Mol

0 1
H	 -2.698709	 -0.000305	 0.034435
C	 -1.693833	 0.000034	 0.434417
O	 -0.828952	 -0.000968	 -0.659236
H	 -1.574200	 0.882896	 1.055746
H	 -1.574147	 -0.881698	 1.057355
C	 -1.250974	 -0.620488	 -1.851962
C	 -1.230940	 -2.144882	 -1.758479
C	 -2.594328	 -0.086729	 -2.345378
H	 -0.492824	 -0.321925	 -2.566174
H	 -0.281963	 -2.484757	 -1.357883
H	 -1.359114	 -2.578860	 -2.745125
H	 -2.026679	 -2.528469	 -1.127746
H	 -2.589288	 0.997895	 -2.350310
H	 -2.781126	 -0.430939	 -3.357846
H	 -3.421745	 -0.423137	 -1.728895

9 6 3 2 F

