%nprocshared=8
%mem=2GB
#B3LYP/6-31G* nosymm scf=tight
# opt=ModRedundant  EmpiricalDispersion=GD3

Mol

1 1
C	 -0.179682	 0.155528	 -0.211017
C	 -0.108000	 1.434656	 0.371871
C	 -0.283897	 1.576401	 1.744711
C	 -0.521190	 0.451130	 2.540124
C	 -0.588300	 -0.821448	 1.964565
C	 -0.423352	 -0.974730	 0.591606
C	 -0.000000	 -0.000000	 -1.658508
H	 0.033423	 2.315952	 -0.247447
H	 -0.246229	 2.563905	 2.192986
H	 -0.654175	 0.566239	 3.611431
H	 -0.758857	 -1.693924	 2.586842
H	 -0.433702	 -1.969479	 0.155024
N	 -0.712589	 -0.905950	 -2.322235
N	 0.875194	 0.765203	 -2.304699
H	 0.969956	 0.761347	 -3.313546
H	 1.528581	 1.334586	 -1.782998
H	 -1.377189	 -1.485970	 -1.827091
H	 -0.673431	 -1.006470	 -3.329771

1 7 13 17 F
