%nprocshared=1
%mem=2GB
#HF/6-31G* nosymm scf=tight 

Mol

0 1
H	 2.447252	 -0.672983	 0.179185
C	 1.730475	 0.131304	 0.216715
O	 0.464886	 -0.454746	 -0.000158
H	 1.962596	 0.854121	 -0.556384
H	 1.777642	 0.607882	 1.188677
C	 -0.590998	 0.343045	 0.000118
O	 -1.699443	 -0.054298	 0.000227
H	 -0.340329	 1.404368	 0.000207
