%nprocshared=1
%mem=2GB
#HF/6-31G* nosymm scf=tight 

Mol

0 1
O	 0.723930	 2.086683	 0.214582
C	 -0.332099	 2.432255	 0.636983
C	 -1.595613	 1.606861	 0.624653
O	 -0.540123	 3.621241	 1.188358
C	 -1.412532	 0.227344	 -0.000452
H	 -1.943750	 1.530843	 1.651189
H	 -2.353107	 2.180568	 0.097569
C	 -2.706999	 -0.587347	 -0.000541
H	 -0.639063	 -0.310677	 0.538791
H	 -1.048518	 0.339984	 -1.016971
C	 -3.956778	 0.291888	 0.000910
H	 -2.726114	 -1.239230	 -0.871609
H	 -2.725217	 -1.240844	 0.869333
H	 -3.985213	 0.933254	 -0.875158
H	 -4.860123	 -0.309979	 0.000519
H	 -3.984618	 0.931166	 0.878514
C	 0.569288	 4.498053	 1.262834
H	 1.360613	 4.060295	 1.854154
H	 0.203800	 5.397054	 1.734176
H	 0.945482	 4.719732	 0.274480

1 2 3 6 F

9 5 3 6 F

1 2 4 17 F

