%nprocshared=1
%mem=2GB
#HF/6-31G* nosymm scf=tight 

Mol

0 1
H	 -3.161837	 0.500524	 -0.000234
C	 -2.367097	 -0.232926	 -0.000000
O	 -1.158440	 0.455814	 -0.000122
H	 -2.468853	 -0.861886	 -0.882833
H	 -2.468942	 -0.861421	 0.883154
C	 -1.058687	 1.440634	 0.983775
C	 0.300233	 2.109559	 0.871797
H	 -1.182068	 0.997128	 1.972703
H	 -1.854304	 2.176601	 0.860266
C	 0.888626	 2.469375	 2.235324
H	 0.969895	 1.441486	 0.338981
H	 0.195850	 3.001109	 0.261107
H	 1.024107	 1.586638	 2.854069
H	 1.857321	 2.945241	 2.125652
H	 0.244153	 3.156888	 2.776049

6 3 2 4 F

8 6 3 2 F

