%nprocshared=1
%mem=2GB
#HF/6-31G* nosymm scf=tight 

Mol

0 1
H	 -2.354811	 -0.331671	 3.111803
C	 -2.225274	 -0.579860	 2.060250
O	 -0.879601	 -0.627740	 1.710665
H	 -2.644709	 -1.559582	 1.877598
H	 -2.768503	 0.151832	 1.463629
C	 -0.201424	 0.575658	 1.887182
C	 1.264029	 0.372532	 1.581579
H	 -0.604463	 1.338250	 1.219568
H	 -0.308296	 0.933931	 2.909054
O	 1.392611	 -0.295398	 0.366430
H	 1.760328	 1.340217	 1.545786
H	 1.719999	 -0.209821	 2.383233
C	 2.706965	 -0.449871	 -0.062409
H	 2.756559	 -0.644779	 -1.131878
H	 3.305899	 0.433456	 0.155466
H	 3.125548	 -1.294566	 0.467107

3 6 7 11 F

2 3 6 7 F

