%nprocshared=1
%mem=2GB
#HF/6-31G* nosymm scf=tight 

Mol

0 1
H	 0.668246	 -1.014251	 1.506237
O	 1.117366	 -0.241179	 1.192384
C	 0.192536	 0.797413	 1.051036
C	 -0.795902	 0.595680	 -0.067389
H	 0.771760	 1.695211	 0.867568
H	 -0.349763	 0.962006	 1.981545
C	 -1.522220	 -0.487727	 -0.255690
H	 -0.885821	 1.426123	 -0.750589
H	 -1.071454	 -1.449856	 -0.418625
H	 -2.596511	 -0.445958	 -0.267127

5 3 2 1 F

5 3 4 7 F

