%nprocshared=1
%mem=2GB
#HF/6-31G* nosymm scf=tight 

Mol

0 1
H	 2.318729	 1.570769	 1.401949
N	 1.445545	 1.083108	 1.344940
C	 1.267428	 0.496480	 0.024474
H	 0.725742	 1.755731	 1.530349
C	 -0.016086	 -0.325158	 -0.029487
H	 2.116867	 -0.152752	 -0.165228
H	 1.255987	 1.239250	 -0.777113
C	 -1.282277	 0.529072	 0.046735
H	 -0.012495	 -0.908639	 -0.945788
H	 -0.015903	 -1.041248	 0.791956
C	 -2.563920	 -0.301775	 -0.006060
H	 -1.284084	 1.244622	 -0.773004
H	 -1.271387	 1.115393	 0.963286
H	 -2.621848	 -0.873522	 -0.927727
H	 -3.445135	 0.329952	 0.047812
H	 -2.609542	 -1.004582	 0.821105

12 8 5 9 F

1 2 3 6 F

