%nprocshared=1
%mem=2GB
#HF/6-31G* nosymm scf=tight 

Mol

0 1
H	 -0.755066	 -2.106937	 -4.309614
C	 -0.223048	 -1.788010	 -3.431938
C	 -0.520383	 -2.335812	 -2.188664
C	 0.765081	 -0.829274	 -3.520702
H	 -1.287665	 -3.084367	 -2.100515
C	 0.159680	 -1.929351	 -1.061055
H	 1.008599	 -0.394471	 -4.473976
C	 1.460704	 -0.408180	 -2.392320
H	 -0.059904	 -2.344147	 -0.094845
C	 1.156401	 -0.960673	 -1.158128
H	 2.223595	 0.339052	 -2.493854
O	 1.765256	 -0.628444	 0.000000
C	 2.778419	 0.335181	 0.000000
H	 2.731280	 0.961222	 -0.884976
H	 3.711703	 -0.207767	 0.000000
H	 2.731280	 0.961222	 0.884976

13 12 10 8 F

