%nprocshared=1
%mem=2GB
#HF/6-31G* nosymm scf=tight 

Mol

0 1
H	 -2.257910	 1.248298	 1.150423
C	 -2.434107	 0.275482	 0.707783
C	 -1.172951	 -0.579344	 0.746755
H	 -2.763800	 0.435153	 -0.311574
H	 -3.235730	 -0.209542	 1.254982
C	 -0.000005	 0.033229	 -0.000001
H	 -1.361270	 -1.564469	 0.324309
H	 -0.859823	 -0.758528	 1.773517
C	 1.290528	 -0.768786	 0.000276
O	 -0.087507	 1.085236	 -0.555707
C	 2.545731	 0.095645	 -0.000061
H	 1.275672	 -1.427874	 -0.865626
H	 1.275566	 -1.427086	 0.866768
H	 2.577157	 0.734767	 -0.874036
H	 3.433520	 -0.528139	 0.000137
H	 2.577172	 0.735117	 0.873581
