%nprocshared=1
%mem=2GB
#HF/6-31G* nosymm scf=tight 

Mol

0 1
H	 -3.300935	 0.569811	 -0.092853
C	 -2.250438	 0.343604	 -0.073943
C	 -1.813319	 -0.976409	 -0.047156
C	 -1.314746	 1.357472	 -0.075855
H	 -2.528528	 -1.779715	 -0.045257
C	 -0.467130	 -1.270318	 -0.022861
H	 -1.634366	 2.384364	 -0.096394
C	 0.047459	 1.077717	 -0.051544
H	 -0.115933	 -2.285237	 -0.002043
C	 0.472246	 -0.241347	 -0.024952
H	 0.750370	 1.888012	 -0.053731
O	 1.765256	 -0.628444	 0.000000
C	 2.778419	 0.335181	 0.000000
H	 2.731280	 0.961222	 -0.884976
H	 3.711703	 -0.207767	 0.000000
H	 2.731280	 0.961222	 0.884976

13 12 10 8 F

