%nprocshared=1
%mem=2GB
#HF/6-31G* nosymm scf=tight 

Mol

0 1
H	 -8.447922	 2.802752	 -3.324660
C	 -8.046023	 2.321579	 -2.424343
C	 -6.867491	 3.023308	 -1.798842
O	 -8.537306	 1.321488	 -2.011780
C	 -5.732292	 2.056455	 -1.434460
H	 -6.529502	 3.796688	 -2.478810
H	 -7.228428	 3.509353	 -0.893227
C	 -6.089662	 1.096569	 -0.296829
H	 -5.469958	 1.484855	 -2.319751
H	 -4.843623	 2.626656	 -1.168198
C	 -6.253274	 1.803461	 1.050150
H	 -5.315564	 0.336214	 -0.216336
H	 -7.008864	 0.565596	 -0.536982
C	 -7.144331	 3.045428	 0.963640
H	 -6.664460	 1.099694	 1.769434
H	 -5.272887	 2.090477	 1.428100
C	 -8.476090	 2.930578	 1.714174
H	 -7.340708	 3.275648	 -0.082366
H	 -6.595566	 3.895780	 1.362978
C	 -9.441535	 1.892099	 1.140506
H	 -8.962502	 3.902772	 1.700334
H	 -8.281521	 2.704290	 2.760528
H	 -9.641833	 2.084110	 0.089658
H	 -9.050397	 0.883621	 1.223924
H	 -10.390864	 1.916855	 1.666962

6 3 5 8 F

6 3 2 4 F

3 5 8 12 F

12 8 11 14 F

20 17 14 18 F

