%nprocshared=1
%mem=2GB
#HF/6-31G* nosymm scf=tight 

Mol

0 1
O	 -3.853486	 4.767425	 2.367791
C	 -3.589812	 4.457530	 1.246542
C	 -2.652680	 3.307590	 0.923494
C	 -4.178810	 5.198743	 0.063816
C	 -2.933125	 2.035105	 1.717450
H	 -2.717326	 3.115698	 -0.146734
H	 -1.633034	 3.650735	 1.093720
C	 -1.777107	 1.655739	 2.644523
H	 -3.134778	 1.222211	 1.027037
H	 -3.841544	 2.169737	 2.296065
C	 -0.573152	 1.082784	 1.894892
H	 -1.463092	 2.531260	 3.211008
H	 -2.122578	 0.927942	 3.377345
C	 -0.064872	 1.996044	 0.777922
H	 -0.839186	 0.114688	 1.474136
H	 0.233984	 0.895561	 2.600919
C	 -0.975152	 2.001589	 -0.449695
H	 0.032923	 3.010577	 1.158687
H	 0.934926	 1.683302	 0.483890
H	 -1.974642	 2.342602	 -0.194980
H	 -0.588985	 2.658132	 -1.223341
H	 -1.065335	 1.006148	 -0.875265
H	 -4.744894	 4.518640	 -0.565967
H	 -4.826996	 5.989572	 0.414927
H	 -3.388670	 5.622899	 -0.548887

9 5 8 12 F

15 11 8 12 F

15 11 14 18 F

1 2 3 6 F

