%nprocshared=1
%mem=2GB
#HF/6-31G* nosymm scf=tight 
prop=(read,field)

Mol

0 1
H	 2.465083	 -2.224397	 -0.000000
O	 2.783932	 -1.332189	 0.000000
C	 1.765058	 -0.449538	 -0.000000
C	 2.091753	 0.902946	 0.000000
C	 0.440676	 -0.842152	 -0.000000
H	 3.128399	 1.182630	 0.000000
C	 1.093457	 1.855033	 -0.000000
H	 0.160343	 -1.877014	 -0.000000
C	 -0.536413	 0.140251	 -0.000000
H	 1.354643	 2.896973	 0.000000
C	 -0.245031	 1.485853	 -0.000000
N	 -1.935859	 -0.280507	 -0.000000
H	 -1.030560	 2.212729	 -0.000000
O	 -2.161949	 -1.453075	 0.000000
O	 -2.770596	 0.571243	 0.000000

@grid.dat /N
