%nprocshared=1
%mem=2GB
#HF/6-31G* nosymm scf=tight 

Mol

0 1
O	 -1.480382	 1.239358	 -0.123246
C	 -1.083277	 0.139568	 0.115197
C	 0.323299	 -0.082943	 0.642902
C	 -1.942803	 -1.083149	 -0.117198
C	 1.355627	 -0.005344	 -0.493127
H	 0.396251	 -1.044647	 1.143147
H	 0.528637	 0.693580	 1.371677
C	 1.155333	 1.223865	 -1.377534
H	 2.360126	 0.010252	 -0.075980
H	 1.280057	 -0.907677	 -1.090809
H	 1.891536	 1.252673	 -2.174319
H	 1.250670	 2.141594	 -0.804378
H	 0.170717	 1.219102	 -1.835306
H	 -1.410918	 -1.820723	 -0.711127
H	 -2.859567	 -0.801434	 -0.616111
H	 -2.179355	 -1.549315	 0.835660

9 5 3 2 F

