%nprocshared=1
%mem=2GB
#HF/6-31G* nosymm scf=tight 

Mol

0 1
H	 -3.900962	 -1.575087	 0.957949
C	 -2.832516	 -1.455883	 0.989537
C	 -2.158559	 -1.579117	 2.195250
C	 -2.133933	 -1.179586	 -0.175183
H	 -2.701545	 -1.793415	 3.097807
C	 -0.784746	 -1.425710	 2.235070
H	 -2.658072	 -1.084409	 -1.108899
C	 -0.758701	 -1.025619	 -0.137719
H	 -0.246718	 -1.517640	 3.159055
C	 -0.080308	 -1.148524	 1.069112
H	 -0.214087	 -0.811746	 -1.036593
C	 1.398517	 -0.992412	 1.165867
O	 1.970282	 -0.730723	 0.000018
O	 2.013115	 -1.090742	 2.181476
C	 3.377318	 -0.566646	 -0.000065
H	 3.695437	 -0.028981	 -0.881264
H	 3.789299	 -1.563704	 0.000236
H	 3.695516	 -0.028316	 0.880770

10 12 13 15 F

13 12 10 6 F

