%nprocshared=1
%mem=2GB
#HF/6-31G* nosymm scf=tight 

Mol

0 1
H	 -2.713253	 0.125323	 0.890300
O	 -1.797526	 0.132992	 0.652691
C	 -1.669334	 0.330596	 -0.732435
C	 -1.987501	 1.756644	 -1.168192
H	 -0.639093	 0.097419	 -0.968881
H	 -2.293898	 -0.376158	 -1.277593
C	 -1.305276	 2.833256	 -0.320640
H	 -1.696050	 1.872358	 -2.208881
H	 -3.066927	 1.891782	 -1.124100
C	 -1.849445	 2.892963	 1.109442
H	 -1.435422	 3.799992	 -0.799023
H	 -0.232643	 2.641784	 -0.286910
C	 -1.980625	 1.533457	 1.805772
H	 -1.213964	 3.543697	 1.707402
H	 -2.829741	 3.364377	 1.087303
C	 -3.034785	 0.600176	 1.203932
H	 -1.014136	 1.035218	 1.767406
H	 -2.197695	 1.689786	 2.861367
C	 -4.465221	 1.099239	 1.418936
H	 -2.930896	 -0.390338	 1.644615
H	 -2.861967	 0.478748	 0.137306
C	 -5.411106	 0.710962	 0.283063
H	 -4.847259	 0.703375	 2.357459
H	 -4.456195	 2.181939	 1.526468
H	 -5.467273	 -0.368187	 0.171231
H	 -6.416738	 1.077069	 0.465559
H	 -5.076338	 1.123259	 -0.664726

14 10 7 4 F

14 10 13 16 F

10 7 4 8 F

8 4 3 2 F

10 13 16 20 F

4 3 2 1 F

