%nprocshared=1
%mem=2GB
#HF/6-31G* nosymm scf=tight 

Mol

0 1
H	 -1.836216	 1.387520	 -0.000064
C	 -1.301823	 0.443321	 -0.000031
O	 -0.003969	 0.658512	 0.000451
O	 -1.829879	 -0.616434	 -0.000857
C	 0.850537	 -0.484732	 0.000380
C	 2.217385	 -0.029845	 -0.463432
H	 0.431345	 -1.233189	 -0.657957
H	 0.881730	 -0.897252	 0.999454
H	 2.165535	 0.387690	 -1.462437
H	 2.900334	 -0.872811	 -0.478318
H	 2.618244	 0.725270	 0.202903

5 3 2 4 F

