%nprocshared=1
%mem=2GB
#HF/6-31G* nosymm scf=tight 

Mol

0 1
H	 3.509112	 -1.463360	 -3.297703
C	 2.928946	 -1.658363	 -2.401528
C	 1.677079	 -0.783343	 -2.355351
H	 2.670558	 -2.713568	 -2.399446
H	 3.572173	 -1.474193	 -1.545614
C	 0.832398	 -1.025804	 -1.108705
H	 1.061098	 -0.963804	 -3.230788
H	 1.969071	 0.264869	 -2.392567
N	 -0.359703	 -0.200990	 -1.114581
H	 0.518978	 -2.066074	 -1.084850
H	 1.444739	 -0.866822	 -0.214758
C	 -1.217365	 -0.386708	 0.039277
H	 -0.096469	 0.764011	 -1.181812
C	 -2.452633	 0.504241	 -0.042481
H	 -1.527377	 -1.428039	 0.061166
H	 -0.693099	 -0.200331	 0.982565
C	 -3.758029	 -0.289423	 -0.010781
H	 -2.394220	 1.093569	 -0.952170
H	 -2.440793	 1.210787	 0.785871
H	 -3.816659	 -0.981993	 -0.845726
H	 -4.617837	 0.370165	 -0.069296
H	 -3.847478	 -0.867502	 0.904682

10 6 9 12 F

