%nprocshared=1
%mem=2GB
#HF/6-31G* nosymm scf=tight 

Mol

0 1
H	 -0.624954	 1.896287	 0.345171
N	 -0.848644	 0.923323	 0.424411
C	 0.347339	 0.108563	 0.302368
H	 -1.481785	 0.700939	 -0.319086
C	 0.862154	 0.155915	 -1.120959
H	 1.154861	 0.411466	 0.970320
H	 0.093220	 -0.919028	 0.543740
O	 -0.088814	 -0.446451	 -1.951562
H	 1.026697	 1.188598	 -1.427765
H	 1.809430	 -0.374928	 -1.185068
C	 0.295968	 -0.548357	 -3.285402
H	 1.077210	 -1.293847	 -3.345427
H	 -0.534823	 -0.858547	 -3.916710
H	 0.680852	 0.397273	 -3.661511

8 5 3 6 F

6 3 2 4 F

11 8 5 3 F

