%nprocshared=1
%mem=2GB
#HF/6-31G* nosymm scf=tight 

Mol

0 1
H	 2.603957	 -0.947225	 -1.850757
C	 1.884017	 -1.171124	 -1.071987
C	 1.322923	 0.120767	 -0.479465
H	 1.099185	 -1.779120	 -1.511023
H	 2.387640	 -1.766185	 -0.316435
C	 0.306652	 -0.176050	 0.621399
H	 0.839891	 0.707398	 -1.254043
H	 2.122531	 0.722897	 -0.064340
N	 -1.068537	 -0.011044	 0.085269
H	 0.372515	 -1.192590	 0.973735
H	 0.391664	 0.520566	 1.441230
O	 -1.656956	 -0.997225	 -0.235017
O	 -1.478635	 1.104830	 -0.018026

12 9 6 3 F

