%nprocshared=1
%mem=2GB
#HF/6-31G* nosymm scf=tight 

Mol

0 1
H	 -3.457960	 0.166880	 1.449720
O	 -3.367910	 -0.300316	 2.267454
C	 -3.043259	 -1.643282	 2.012310
C	 -1.609705	 -1.833855	 1.529264
H	 -3.184960	 -2.163733	 2.950780
H	 -3.740919	 -2.074362	 1.295219
C	 -1.314720	 -1.174099	 0.179978
H	 -0.935821	 -1.437562	 2.284379
H	 -1.414703	 -2.902721	 1.459510
C	 -1.388864	 -2.160181	 -0.989195
H	 -0.327093	 -0.722485	 0.211650
H	 -2.024593	 -0.364471	 0.009911
C	 -2.624871	 -3.067170	 -0.989207
H	 -1.347709	 -1.608019	 -1.926356
H	 -0.500870	 -2.788474	 -0.968859
C	 -2.682802	 -4.077565	 0.159803
H	 -3.510846	 -2.437381	 -0.941980
H	 -2.681771	 -3.597107	 -1.938820
C	 -3.981863	 -4.885992	 0.177781
H	 -2.575583	 -3.550701	 1.106919
H	 -1.842534	 -4.764778	 0.096624
C	 -4.039533	 -5.899796	 1.319945
H	 -4.827682	 -4.206312	 0.255974
H	 -4.095544	 -5.405435	 -0.771503
H	 -3.961185	 -5.407680	 2.285298
H	 -4.972335	 -6.455084	 1.306831
H	 -3.226857	 -6.617374	 1.249214

14 10 7 4 F

14 10 13 16 F

8 4 3 2 F

10 13 16 20 F

20 16 19 22 F

4 3 2 1 F

