%nprocshared=1
%mem=2GB
#HF/6-31G* nosymm scf=tight 

Mol

0 1
O	 -0.225430	 1.516131	 1.952018
C	 -0.833093	 0.610524	 1.479901
C	 -1.911769	 -0.165964	 2.185500
O	 -0.632575	 0.154573	 0.251549
H	 -1.635529	 -1.212870	 2.236748
H	 -2.050890	 0.229055	 3.180709
H	 -2.837545	 -0.097804	 1.625991
C	 0.160891	 -1.019931	 0.106212
C	 1.589627	 -0.672828	 0.480843
H	 0.089836	 -1.367806	 -0.916050
H	 -0.238459	 -1.792301	 0.749618
C	 1.722001	 0.048570	 1.823400
H	 1.992087	 -0.045559	 -0.311932
H	 2.181606	 -1.584278	 0.489726
C	 0.938030	 -0.641001	 2.939143
H	 2.773202	 0.101679	 2.099546
H	 1.378146	 1.072119	 1.716299
H	 1.047027	 -0.110418	 3.879693
H	 1.283598	 -1.659565	 3.092076
H	 -0.121838	 -0.683666	 2.704755

16 12 9 8 F

2 4 8 10 F

12 9 8 10 F

