%nprocshared=1
%mem=2GB
#HF/6-31G* nosymm scf=tight 

Mol

0 1
H	 0.265650	 -6.423740	 -0.886479
C	 0.510341	 -5.437737	 -0.533339
C	 0.287413	 -5.103780	 0.794036
C	 1.047472	 -4.505160	 -1.406680
H	 -0.129209	 -5.827976	 1.470301
C	 0.602290	 -3.835779	 1.247363
H	 1.219579	 -4.765844	 -2.435285
C	 1.363436	 -3.235266	 -0.955117
H	 0.436590	 -3.559816	 2.271111
C	 1.141210	 -2.897457	 0.374644
H	 1.779273	 -2.510451	 -1.627459
C	 1.463013	 -1.545621	 0.912827
O	 1.970282	 -0.730723	 0.000018
O	 1.286408	 -1.220695	 2.045122
C	 3.377318	 -0.566646	 -0.000065
H	 3.695437	 -0.028981	 -0.881264
H	 3.789299	 -1.563704	 0.000236
H	 3.695516	 -0.028316	 0.880770

12 13 15 16 F

13 12 10 6 F

