%nprocshared=1
%mem=2GB
#HF/6-31G* nosymm scf=tight opt=ModRedundant

Mol

0 1
H	 1.714000	 -0.798000	 -0.000000
O	 0.786000	 -1.015000	 0.000000
C	 0.095000	 0.123000	 0.000000
C	 -1.387000	 -0.123000	 0.000000
O	 0.622000	 1.187000	 0.000000
H	 -1.660000	 -0.701000	 -0.875000
H	 -1.910000	 0.821000	 -0.000000
H	 -1.660000	 -0.701000	 0.875000
