%nprocshared=24
%mem=2GB
#HF/6-31G* nosymm scf=tight 

Mol

0 1
H	 -4.290000	 -0.260530	 -0.758955
C	 -3.444100	 -0.331901	 -0.103197
C	 -2.272853	 -0.682576	 -0.581954
H	 -3.582098	 -0.111544	 0.938586
O	 -1.180634	 -0.819263	 0.215062
H	 -2.112147	 -0.900394	 -1.623071
C	 0.051604	 -1.018856	 -0.387932
C	 1.043764	 0.054862	 -0.001873
H	 -0.017620	 -1.041351	 -1.469781
H	 0.437898	 -1.966374	 -0.042284
F	 0.990529	 0.254188	 1.307035
F	 2.284001	 -0.290991	 -0.305236
F	 0.789209	 1.201364	 -0.597797

11 8 7 9 F

6 3 2 1 F

6 3 5 7 F

