%nprocshared=1
%mem=2GB
#HF/6-31G* nosymm scf=tight 

Mol

0 1
H	 5.268524	 0.192471	 1.070992
C	 4.673736	 -0.214914	 0.259335
C	 3.185378	 -0.203514	 0.605509
H	 4.871837	 0.380453	 -0.627026
H	 5.025590	 -1.224632	 0.065769
C	 2.317601	 -0.778379	 -0.516234
H	 2.874655	 0.814325	 0.817774
H	 3.023650	 -0.778480	 1.515976
C	 3.063214	 -0.963506	 -1.837997
H	 1.907946	 -1.733200	 -0.206163
H	 1.474637	 -0.113256	 -0.689624
C	 4.081867	 -2.093782	 -1.830033
H	 2.353270	 -1.191813	 -2.631486
H	 3.554374	 -0.041048	 -2.139674
C	 5.127774	 -2.104286	 -2.931251
O	 4.054943	 -2.954547	 -1.002529
C	 4.538446	 -2.251516	 -4.341988
H	 5.802285	 -2.925249	 -2.719664
H	 5.699240	 -1.179692	 -2.874354
C	 5.622460	 -2.356808	 -5.416437
H	 3.910111	 -3.138968	 -4.377188
H	 3.894860	 -1.405300	 -4.568231
C	 5.048427	 -2.503752	 -6.824910
H	 6.264052	 -3.206502	 -5.196345
H	 6.257151	 -1.474327	 -5.374139
H	 4.434667	 -3.396103	 -6.906966
H	 4.428957	 -1.650971	 -7.087843
H	 5.839711	 -2.577716	 -7.564016

12 15 17 21 F

16 12 15 17 F

