%nprocshared=1
%mem=2GB
#HF/6-31G* nosymm scf=tight 

Mol

0 1
H	 -2.631304	 0.069391	 -0.418779
C	 -1.643640	 -0.376625	 -0.433447
C	 -0.603454	 0.661669	 0.000000
H	 -1.443167	 -0.730993	 -1.437277
H	 -1.643155	 -1.228853	 0.235244
C	 0.763625	 0.112519	 0.000000
H	 -0.617636	 1.518870	 -0.663005
H	 -0.816357	 1.024165	 0.998919
N	 1.813038	 -0.320305	 0.000000
