%nprocshared=1
%mem=2GB
#HF/6-31G* nosymm scf=tight 

Mol

0 1
H	 1.600980	 1.820463	 2.069097
O	 2.507112	 1.552333	 2.023241
C	 2.605811	 0.172726	 2.270219
C	 2.099000	 -0.682660	 1.114284
H	 3.657673	 -0.022179	 2.435368
H	 2.080747	 -0.088563	 3.188268
C	 0.604715	 -0.517796	 0.826539
H	 2.671602	 -0.434148	 0.224489
H	 2.309740	 -1.725324	 1.346251
C	 0.115918	 -1.429151	 -0.302766
H	 0.402717	 0.518362	 0.569755
H	 0.035841	 -0.733473	 1.731087
C	 0.579824	 -2.886769	 -0.200376
H	 -0.971496	 -1.399485	 -0.341451
H	 0.463658	 -1.023001	 -1.250299
C	 0.727785	 -3.417141	 1.228361
H	 -0.136855	 -3.511425	 -0.729518
H	 1.526011	 -3.000648	 -0.727253
C	 1.089510	 -4.903113	 1.278129
H	 -0.203924	 -3.256926	 1.769064
H	 1.489685	 -2.852392	 1.760217
C	 1.244105	 -5.433542	 2.703053
H	 0.324002	 -5.477389	 0.760738
H	 2.015148	 -5.066637	 0.730097
H	 0.323796	 -5.314109	 3.267847
H	 1.498359	 -6.488998	 2.704892
H	 2.028698	 -4.903778	 3.236090

14 10 7 4 F

10 7 4 8 F

8 4 3 2 F

10 13 16 20 F

20 16 19 22 F

4 3 2 1 F

