%nprocshared=1
%mem=2GB
#HF/6-31G* nosymm scf=tight 

Mol

0 1
H	 -3.258127	 0.514346	 -0.443026
C	 -2.847390	 1.519963	 -0.378430
O	 -1.483223	 1.530997	 -0.650942
H	 -3.332369	 2.144202	 -1.116172
H	 -3.061181	 1.916906	 0.613113
C	 -0.719715	 0.768384	 0.229244
C	 0.719720	 0.768376	 -0.229267
H	 -0.775221	 1.184369	 1.236007
H	 -1.083317	 -0.256410	 0.269165
O	 1.392611	 -0.295398	 0.366430
H	 0.750534	 0.687200	 -1.313918
H	 1.185043	 1.714359	 0.050526
C	 2.706965	 -0.449871	 -0.062409
H	 2.756559	 -0.644779	 -1.131878
H	 3.305899	 0.433456	 0.155466
H	 3.125548	 -1.294566	 0.467107

7 10 13 14 F

2 3 6 7 F

