%nprocshared=1
%mem=2GB
#HF/6-31G* nosymm scf=tight 

Mol

0 1
H	 -0.258977	 2.382474	 0.692794
C	 0.569375	 1.690938	 0.853719
N	 0.538815	 0.649616	 0.000000
O	 1.390192	 1.874198	 1.703356
C	 1.521968	 -0.411503	 0.000000
H	 -0.201853	 0.615686	 -0.662226
H	 2.150599	 -0.357004	 -0.881901
H	 0.999455	 -1.354525	 0.000000
H	 2.150599	 -0.357004	 0.881901

1 2 3 6 F

