%nprocshared=1
%mem=2GB
#HF/6-31G* nosymm scf=tight 

Mol

0 1
H	 -0.950907	 2.307878	 -0.767560
C	 -0.810467	 1.296196	 -0.441704
C	 -1.913958	 0.478372	 -0.028187
C	 0.412489	 0.751546	 -0.407764
H	 -2.908800	 0.887126	 -0.044140
C	 -1.713485	 -0.784322	 0.375392
H	 1.289933	 1.296208	 -0.700748
N	 0.640212	 -0.532897	 -0.000111
H	 -2.513681	 -1.424812	 0.691328
C	 -0.382609	 -1.376772	 0.412187
C	 2.010177	 -1.032049	 0.000042
O	 -0.160610	 -2.507343	 0.768178
H	 2.187698	 -1.635381	 -0.882279
H	 2.677579	 -0.189247	 -0.001871
H	 2.188882	 -1.632203	 0.884288
