%nprocshared=1
%mem=2GB
#HF/6-31G* nosymm scf=tight 
prop=(read,field)

Mol

0 1
H	 1.513251	 1.313718	 -0.000849
C	 0.850336	 0.441076	 0.000644
C	 -0.623256	 0.759967	 0.000248
O	 1.306605	 -0.655994	 -0.000538
C	 -1.518218	 -0.473233	 -0.000101
H	 -0.818120	 1.390525	 -0.866171
H	 -0.818525	 1.390316	 0.866696
H	 -1.333248	 -1.085627	 -0.874338
H	 -2.563341	 -0.183563	 -0.000351
H	 -1.333695	 -1.085773	 0.874123

@grid.dat /N
