%nprocshared=1
%mem=2GB
#HF/6-31G* nosymm scf=tight 

Mol

0 1
O	 0.967018	 1.393844	 -0.652172
C	 -0.114198	 1.300104	 -0.167965
C	 -1.062328	 2.447149	 0.054935
O	 -0.632575	 0.154573	 0.251549
H	 -1.296113	 2.529294	 1.110181
H	 -0.611954	 3.363352	 -0.296592
H	 -1.990529	 2.262876	 -0.473500
C	 0.160891	 -1.019931	 0.106212
C	 1.589627	 -0.672828	 0.480843
H	 0.089836	 -1.367806	 -0.916050
H	 -0.238459	 -1.792301	 0.749618
C	 2.246377	 0.346236	 -0.452210
H	 2.163194	 -1.597435	 0.473358
H	 1.604769	 -0.303424	 1.502885
C	 1.358904	 1.563499	 -0.708460
H	 3.190486	 0.671580	 -0.019882
H	 2.486927	 -0.133459	 -1.395284
H	 1.845995	 2.270083	 -1.372924
H	 1.128012	 2.084502	 0.216485
H	 0.418136	 1.272933	 -1.167378

16 12 9 8 F

12 9 8 10 F

1 2 4 8 F

