%nprocshared=1
%mem=2GB
#HF/6-31G* nosymm scf=tight 

Mol

0 1
H	 -2.403923	 1.012578	 -1.077062
C	 -1.557908	 1.684742	 -1.153231
C	 -0.247496	 0.909140	 -1.216644
H	 -1.581055	 2.338332	 -0.289769
H	 -1.681231	 2.290684	 -2.044803
C	 -0.000005	 0.033229	 -0.000001
H	 0.597673	 1.587125	 -1.318730
H	 -0.217929	 0.273014	 -2.099178
C	 1.290528	 -0.768786	 0.000276
O	 -0.775686	 -0.021618	 0.904706
C	 2.545731	 0.095645	 -0.000061
H	 1.275672	 -1.427874	 -0.865626
H	 1.275566	 -1.427086	 0.866768
H	 2.577157	 0.734767	 -0.874036
H	 3.433520	 -0.528139	 0.000137
H	 2.577172	 0.735117	 0.873581
