%nprocshared=1
%mem=2GB
#HF/6-31G* nosymm scf=tight 

Mol

0 1
O	 1.825465	 1.324323	 -0.951462
C	 0.788116	 1.716284	 -1.379704
C	 -0.516134	 0.957269	 -1.353318
O	 0.640172	 2.906476	 -1.947763
C	 -0.823008	 0.326187	 0.001381
H	 -1.299814	 1.647936	 -1.652547
H	 -0.470175	 0.205508	 -2.136556
C	 -1.781773	 -0.859721	 -0.114603
H	 -1.245432	 1.079215	 0.659177
H	 0.104804	 0.006644	 0.465456
C	 -3.224002	 -0.436781	 -0.399128
H	 -1.441616	 -1.526646	 -0.905489
H	 -1.754177	 -1.441242	 0.805698
C	 -3.350606	 0.462103	 -1.628448
H	 -3.624670	 0.080639	 0.469712
H	 -3.838239	 -1.324068	 -0.535415
H	 -2.774268	 1.375087	 -1.507994
H	 -4.383985	 0.744538	 -1.803976
H	 -2.989073	 -0.040674	 -2.521095
C	 1.792514	 3.724689	 -2.034891
H	 2.180449	 3.940881	 -1.049855
H	 1.472688	 4.634305	 -2.518819
H	 2.560106	 3.239076	 -2.620117

15 11 8 12 F

9 5 8 12 F

1 2 3 6 F

1 2 4 20 F

