%nprocshared=1
%mem=2GB
#HF/6-31G* nosymm scf=tight 

Mol

0 1
H	 -0.505020	 -6.107442	 -1.032388
C	 -0.105674	 -5.184912	 -0.649968
C	 -0.148077	 -4.925049	 0.711584
C	 0.449630	 -4.259791	 -1.519865
H	 -0.579016	 -5.643371	 1.385136
C	 0.365601	 -3.738639	 1.202550
H	 0.481619	 -4.462966	 -2.574997
C	 0.964432	 -3.071504	 -1.030656
H	 0.341320	 -3.520719	 2.253070
C	 0.923443	 -2.808081	 0.333415
H	 1.395076	 -2.352764	 -1.700193
C	 1.463013	 -1.545621	 0.912827
O	 1.970282	 -0.730723	 0.000018
O	 1.445164	 -1.285852	 2.075178
C	 3.377318	 -0.566646	 -0.000065
H	 3.695437	 -0.028981	 -0.881264
H	 3.789299	 -1.563704	 0.000236
H	 3.695516	 -0.028316	 0.880770

12 13 15 16 F

13 12 10 6 F

