%nprocshared=1
%mem=2GB
#HF/6-31G* nosymm scf=tight 

Mol

0 1
O	 -0.644987	 -1.652990	 1.664992
C	 -1.514987	 -1.440192	 0.882411
C	 -2.775474	 -2.260464	 0.784449
O	 -1.481751	 -0.454642	 0.000584
H	 -3.283566	 -2.233162	 1.740984
H	 -3.433286	 -1.897333	 0.008654
H	 -2.505502	 -3.290827	 0.586090
C	 -0.334255	 0.388708	 0.000906
C	 0.891947	 -0.504646	 0.000751
H	 -0.365390	 1.025305	 -0.873475
H	 -0.365484	 1.024911	 0.875569
C	 0.838286	 -1.556101	 -1.109219
H	 0.972990	 -0.989855	 0.969484
H	 1.777328	 0.114301	 -0.115286
C	 -0.165550	 -2.674382	 -0.822711
H	 0.580561	 -1.076907	 -2.052106
H	 1.827151	 -1.989778	 -1.247612
C	 0.338395	 -3.674648	 0.216700
H	 -0.393192	 -3.198568	 -1.748175
H	 -1.101338	 -2.238131	 -0.480576
H	 1.256434	 -4.153186	 -0.112266
H	 -0.394324	 -4.454676	 0.398128
H	 0.542637	 -3.185615	 1.164931

13 9 8 10 F

2 4 8 10 F

16 12 9 13 F

1 2 4 8 F

