%nprocshared=1
%mem=2GB
#HF/6-31G* nosymm scf=tight 

Mol

0 1
H	 -1.940684	 -0.409065	 -2.124794
C	 -1.379813	 -0.266662	 -1.222269
C	 -1.949407	 0.381065	 -0.076173
C	 -0.113429	 -0.692101	 -1.129053
H	 -2.964555	 0.734080	 -0.119769
C	 -1.228210	 0.547759	 1.041660
H	 0.385719	 -1.185864	 -1.941121
N	 0.640212	 -0.532897	 -0.000111
H	 -1.620491	 1.027000	 1.917331
C	 0.149794	 0.084677	 1.142855
C	 2.010177	 -1.032049	 0.000042
O	 0.831213	 0.215217	 2.129178
H	 2.187698	 -1.635381	 -0.882279
H	 2.677579	 -0.189247	 -0.001871
H	 2.188882	 -1.632203	 0.884288
