%nprocshared=1
%mem=2GB
#HF/6-31G* nosymm scf=tight 

Mol

0 1
H	 1.618375	 -1.770285	 0.973694
C	 0.731172	 -1.191615	 1.173862
O	 0.464886	 -0.454746	 -0.000158
H	 0.915528	 -0.532573	 2.013923
H	 -0.087936	 -1.861304	 1.407613
C	 -0.590998	 0.343045	 0.000118
O	 -1.699443	 -0.054298	 0.000227
H	 -0.340329	 1.404368	 0.000207
