%nprocshared=1
%mem=2GB
#HF/6-31G* nosymm scf=tight 

Mol

0 1
H	 -1.289760	 1.377502	 -1.953626
C	 -1.005395	 0.760990	 -1.123894
C	 -1.926138	 0.444931	 -0.070393
C	 0.232448	 0.257215	 -1.038034
H	 -2.927946	 0.834559	 -0.110590
C	 -1.547408	 -0.328332	 0.957270
H	 0.980405	 0.446351	 -1.784487
N	 0.640212	 -0.532897	 -0.000111
H	 -2.207979	 -0.585460	 1.762184
C	 -0.200382	 -0.876438	 1.050441
C	 2.010177	 -1.032049	 0.000042
O	 0.178876	 -1.575229	 1.957116
H	 2.187698	 -1.635381	 -0.882279
H	 2.677579	 -0.189247	 -0.001871
H	 2.188882	 -1.632203	 0.884288
