%nprocshared=1
%mem=2GB
#HF/6-31G* nosymm scf=tight 

Mol

0 1
H	 1.157295	 -0.900854	 2.622747
C	 0.845722	 -1.662422	 1.914610
C	 0.580866	 -2.993858	 2.616256
H	 -0.047652	 -1.302143	 1.413188
H	 1.628717	 -1.759633	 1.167436
C	 0.145699	 -4.092922	 1.644401
H	 -0.185721	 -2.854559	 3.371598
H	 1.482670	 -3.311098	 3.137600
C	 1.026823	 -4.198131	 0.399484
H	 0.141864	 -5.049384	 2.155095
H	 -0.875950	 -3.900369	 1.324717
C	 2.417011	 -4.758656	 0.661077
H	 0.557954	 -4.859280	 -0.327712
H	 1.116979	 -3.233746	 -0.095500
C	 3.475324	 -4.538016	 -0.405696
O	 2.669193	 -5.366638	 1.657655
C	 3.142513	 -5.197708	 -1.752249
H	 4.405719	 -4.932529	 -0.015260
H	 3.601921	 -3.466779	 -0.550988
C	 3.906992	 -6.506058	 -1.962969
H	 2.073565	 -5.394231	 -1.800676
H	 3.371148	 -4.517137	 -2.568350
C	 3.584233	 -7.172245	 -3.299729
H	 3.675183	 -7.191428	 -1.151430
H	 4.975620	 -6.311267	 -1.903941
H	 2.526789	 -7.408725	 -3.374670
H	 3.837980	 -6.523738	 -4.133494
H	 4.139105	 -8.097216	 -3.419829

10 6 3 2 F

16 12 15 17 F

