%nprocshared=1
%mem=2GB
#HF/6-31G* nosymm scf=tight 

Mol

0 1
O	 -0.806752	 -1.114546	 1.082146
C	 -0.561929	 -0.074560	 0.531515
C	 -1.597472	 1.034011	 0.503089
N	 0.623947	 0.147590	 -0.102813
H	 -1.868528	 1.298769	 -0.513038
H	 -2.472791	 0.671041	 1.019920
H	 -1.237628	 1.928840	 0.999450
C	 0.687946	 1.186650	 -1.111840
C	 1.729291	 -0.785394	 -0.103718
H	 1.722227	 1.356878	 -1.389873
H	 0.269887	 2.096139	 -0.716875
H	 0.135068	 0.904415	 -2.005199
H	 2.659486	 -0.232598	 -0.160223
H	 1.753620	 -1.373015	 0.800187
H	 1.689095	 -1.462102	 -0.955342

2 4 8 10 F

