%nprocshared=1
%mem=2GB
#HF/6-31G* nosymm scf=tight 

Mol

0 1
H	 -2.698709	 -0.000305	 0.034435
C	 -1.693833	 0.000034	 0.434417
O	 -0.828952	 -0.000968	 -0.659236
H	 -1.574200	 0.882896	 1.055746
H	 -1.574147	 -0.881698	 1.057355
C	 0.559449	 -0.000018	 -0.420814
C	 1.365678	 0.385873	 -1.659362
C	 0.942747	 0.829528	 0.803071
H	 0.771644	 -1.038771	 -0.197215
H	 1.032653	 -0.186573	 -2.518401
H	 2.418193	 0.175662	 -1.497317
H	 1.276655	 1.441623	 -1.895224
H	 0.316538	 0.564703	 1.648167
H	 1.976799	 0.637839	 1.072249
H	 0.844749	 1.895475	 0.624199

6 3 2 1 F

