%nprocshared=1
%mem=2GB
#HF/6-31G* nosymm scf=tight 

Mol

0 1
H	 1.142589	 -0.020345	 1.359544
C	 1.115261	 -0.020839	 0.262750
C	 0.065331	 0.871482	 -0.349150
O	 1.880757	 -0.688912	 -0.353216
C	 -1.339775	 0.583656	 0.198860
H	 0.102478	 0.754472	 -1.426109
H	 0.338789	 1.899065	 -0.113660
C	 -1.808407	 -0.848507	 -0.061364
H	 -2.036183	 1.280685	 -0.256307
H	 -1.360094	 0.788874	 1.267089
H	 -1.828843	 -1.063152	 -1.125336
H	 -2.808409	 -1.004529	 0.329750
H	 -1.153967	 -1.577789	 0.406873

6 3 2 4 F

