%nprocshared=1
%mem=2GB
#HF/6-31G* nosymm scf=tight 

Mol

0 1
H	 1.030886	 -0.731137	 -1.521456
O	 1.142206	 0.209524	 -1.496576
C	 0.694717	 0.688986	 -0.262140
C	 -0.795902	 0.595680	 -0.067389
H	 1.004455	 1.726576	 -0.210445
H	 1.194871	 0.174002	 0.557410
C	 -1.522220	 -0.487727	 -0.255690
H	 -1.271739	 1.511138	 0.248836
H	 -1.071454	 -1.449856	 -0.418625
H	 -2.596511	 -0.445958	 -0.267127

5 3 2 1 F

5 3 4 7 F

