%nprocshared=1
%mem=2GB
#HF/6-31G* nosymm scf=tight 

Mol

0 1
H	 0.928701	 -2.562111	 -2.142849
O	 0.860936	 -2.154211	 -1.285053
C	 -0.138288	 -1.273472	 -1.323501
C	 -0.318135	 -0.576402	 0.000164
O	 -0.783484	 -1.091579	 -2.304131
C	 -1.454360	 0.441875	 -0.000474
H	 -0.477545	 -1.344642	 0.752094
H	 0.630102	 -0.108900	 0.251743
C	 -2.826123	 -0.230780	 0.000056
H	 -1.357605	 1.085198	 -0.868380
H	 -1.357504	 1.086451	 0.866496
H	 -2.959731	 -0.858053	 -0.876869
H	 -3.619374	 0.509403	 -0.000080
H	 -2.959371	 -0.857318	 0.877556

2 3 4 7 F

1 2 3 5 F

