%nprocshared=1
%mem=2GB
#HF/6-31G* nosymm scf=tight 

Mol

0 1
H	 -3.042581	 -0.665861	 0.004336
O	 -2.245037	 -1.176175	 0.000806
C	 -1.162163	 -0.365336	 0.001020
C	 -1.224778	 0.958120	 -0.396312
C	 0.042829	 -0.916588	 0.419284
H	 -2.157483	 1.386020	 -0.723323
C	 -0.068465	 1.725058	 -0.370636
H	 0.055699	 -1.948666	 0.718897
C	 1.195080	 -0.150606	 0.445771
H	 -0.113052	 2.753939	 -0.681206
C	 1.131614	 1.183669	 0.043710
C	 2.500951	 -0.742158	 0.923126
H	 2.019897	 1.790416	 0.055640
H	 3.323266	 -0.443332	 0.281806
H	 2.462627	 -1.824817	 0.938676
H	 2.731798	 -0.403924	 1.929434
