%nprocshared=1
%mem=2GB
#HF/6-31G* nosymm scf=tight 

Mol

0 1
H	 -3.135461	 -1.215070	 0.001379
O	 -2.310168	 -0.871793	 -0.309793
C	 -2.026376	 0.340750	 0.341611
C	 -0.673256	 0.843270	 -0.132153
H	 -2.792215	 1.080697	 0.115987
H	 -2.013526	 0.200402	 1.421792
C	 0.486613	 -0.083066	 0.235839
H	 -0.715586	 0.970948	 -1.210718
H	 -0.508072	 1.829858	 0.297090
C	 1.840406	 0.433480	 -0.254303
H	 0.300215	 -1.068318	 -0.178947
H	 0.519509	 -0.203625	 1.318070
C	 1.791901	 0.964863	 -1.686417
H	 2.186201	 1.222134	 0.410654
H	 2.578269	 -0.363993	 -0.190740
H	 1.087671	 1.787153	 -1.774670
H	 2.764610	 1.326223	 -2.006106
H	 1.482113	 0.189781	 -2.381967

10 7 4 8 F

2 3 4 8 F

1 2 3 4 F

