%nprocshared=1
%mem=2GB
#HF/6-31G* nosymm scf=tight 

Mol

0 1
H	 3.301756	 -0.418749	 0.016088
C	 2.241448	 -0.239425	 0.012629
C	 1.434719	 -0.889273	 -0.913516
C	 1.688606	 0.637495	 0.930973
H	 1.871313	 -1.568501	 -1.623137
C	 0.072653	 -0.661268	 -0.920725
H	 2.315793	 1.138329	 1.645847
C	 0.322016	 0.865381	 0.922712
H	 -0.568075	 -1.153411	 -1.628124
C	 -0.488460	 0.219100	 0.000000
H	 -0.113633	 1.545921	 1.634065
C	 -1.949954	 0.470334	 0.000000
O	 -2.781584	 -0.381627	 0.000000
H	 -2.238022	 1.526388	 0.000000
