%nprocshared=1
%mem=2GB
#HF/6-31G* nosymm scf=tight 

Mol

0 1
H	 -0.499322	 -1.839891	 0.661117
C	 -1.223460	 -1.072553	 0.407823
N	 -0.528168	 0.128977	 -0.000000
H	 -1.812882	 -0.869345	 1.294572
H	 -1.886858	 -1.481567	 -0.358909
C	 0.248044	 -0.037491	 -1.209632
H	 -1.183826	 0.875305	 -0.118896
H	 0.998722	 0.743888	 -1.266824
H	 -0.398417	 0.061950	 -2.074060
H	 0.763621	 -0.999315	 -1.275517
