%nprocshared=1
%mem=2GB
#HF/6-31G* nosymm scf=tight 

Mol

0 1
H	 -1.836216	 1.387520	 -0.000064
C	 -1.301823	 0.443321	 -0.000031
O	 -0.003969	 0.658512	 0.000451
O	 -1.829879	 -0.616434	 -0.000857
C	 0.438934	 1.997219	 0.221555
C	 0.045048	 2.811905	 -0.991482
H	 1.509996	 1.989953	 0.370187
H	 -0.021903	 2.372636	 1.124875
H	 0.509312	 2.416725	 -1.887766
H	 0.365206	 3.840684	 -0.863629
H	 -1.029991	 2.801357	 -1.129566

7 5 3 2 F

