%nprocshared=1
%mem=2GB
#HF/6-31G* nosymm scf=tight 

Mol

0 1
H	 -3.042581	 -0.665861	 0.004336
O	 -2.245037	 -1.176175	 0.000806
C	 -1.162163	 -0.365336	 0.001020
C	 0.121154	 -0.839420	 -0.203118
C	 -1.383789	 0.988709	 0.220731
H	 0.294760	 -1.889039	 -0.370844
C	 1.181303	 0.055947	 -0.185366
H	 -2.393350	 1.322125	 0.378008
C	 -0.326076	 1.880951	 0.236945
H	 2.180829	 -0.309625	 -0.341388
C	 0.968062	 1.402095	 0.032320
C	 -0.568228	 3.356849	 0.451860
H	 1.800549	 2.083357	 0.045673
H	 0.162431	 3.777733	 1.134345
H	 -1.554890	 3.540590	 0.860024
H	 -0.490634	 3.900265	 -0.485703
