%nprocshared=1
%mem=2GB
#HF/6-31G* nosymm scf=tight 

Mol

0 1
H	 -3.571158	 0.540474	 0.139285
O	 -3.106200	 -0.271124	 -0.011510
C	 -1.775819	 -0.076055	 -0.001477
C	 -1.050948	 0.030419	 1.181835
C	 -1.135021	 0.017707	 -1.230563
H	 -1.555323	 -0.043384	 2.130238
C	 0.312609	 0.230343	 1.131208
H	 -1.715906	 -0.067609	 -2.129209
C	 0.229255	 0.217739	 -1.264815
H	 0.884331	 0.314316	 2.036295
C	 0.969034	 0.326396	 -0.091552
H	 0.726320	 0.290469	 -2.217023
C	 2.428645	 0.540404	 -0.143976
O	 3.091018	 0.465455	 -1.132107
H	 2.894606	 0.783142	 0.816818

7 11 13 14 F

