%nprocshared=1
%mem=2GB
#HF/6-31G* nosymm scf=tight 

Mol

0 1
H	 -2.798360	 -0.862255	 -0.071053
N	 -1.863561	 -0.715187	 0.256814
C	 -1.344686	 0.554728	 -0.219830
H	 -1.300452	 -1.461917	 -0.101532
C	 0.081427	 0.741154	 0.254071
H	 -1.362155	 0.656231	 -1.305829
H	 -1.952773	 1.354456	 0.191809
O	 0.079146	 1.676470	 1.294392
H	 0.488971	 -0.207034	 0.604050
H	 0.697314	 1.094772	 -0.569866
C	 1.344184	 2.008646	 1.770741
H	 1.216238	 2.731002	 2.565429
H	 1.861321	 1.137092	 2.168164
H	 1.960239	 2.448911	 0.989427

6 3 2 4 F

5 8 11 13 F

11 8 5 3 F

