%nprocshared=1
%mem=2GB
#HF/6-31G* nosymm scf=tight 

Mol

0 1
H	 1.148083	 -1.049780	 0.784252
O	 1.319262	 -0.618148	 -0.041729
C	 0.709265	 0.639550	 -0.033818
C	 0.469898	 1.218012	 -1.403732
H	 1.368926	 1.292053	 0.526798
H	 -0.233950	 0.608770	 0.510631
C	 0.920723	 0.711456	 -2.533742
H	 -0.119610	 2.121735	 -1.419485
H	 1.525883	 -0.176687	 -2.554045
H	 0.710299	 1.178084	 -3.479235

5 3 4 7 F

3 4 7 9 F

