%nprocshared=1
%mem=2GB
#HF/6-31G* nosymm scf=tight 

Mol

0 1
O	 1.618700	 1.694621	 -0.482793
C	 1.035757	 1.284923	 -1.434341
C	 -0.273506	 0.534641	 -1.406539
O	 1.472611	 1.443387	 -2.677396
C	 -0.823008	 0.326187	 0.001381
H	 -0.976334	 1.085062	 -2.026042
H	 -0.114745	 -0.414193	 -1.911740
C	 -2.149452	 -0.435131	 -0.000098
H	 -0.951955	 1.291149	 0.481392
H	 -0.090067	 -0.210584	 0.595504
C	 -3.368779	 0.488503	 -0.000883
H	 -2.193746	 -1.087250	 -0.871175
H	 -2.195311	 -1.087803	 0.870418
C	 -3.346354	 1.505125	 -1.141597
H	 -3.422266	 1.013619	 0.950187
H	 -4.273627	 -0.111280	 -0.069069
H	 -2.469560	 2.143689	 -1.080920
H	 -4.223185	 2.144600	 -1.115337
H	 -3.327221	 1.009791	 -2.108339
C	 2.696042	 2.136215	 -2.845205
H	 2.620624	 3.140735	 -2.454333
H	 2.877603	 2.161243	 -3.908353
H	 3.498616	 1.618065	 -2.340328

15 11 8 12 F

1 2 3 6 F

9 5 3 6 F

1 2 4 20 F

