%nprocshared=1
%mem=2GB
#HF/6-31G* nosymm scf=tight 

Mol

0 1
H	 -1.951486	 1.761760	 1.269234
C	 -0.940012	 1.375020	 1.313689
C	 -0.603454	 0.661669	 0.000000
H	 -0.870574	 0.694447	 2.153594
H	 -0.264451	 2.203357	 1.489520
C	 0.763625	 0.112519	 0.000000
H	 -1.290788	 -0.156903	 -0.179110
H	 -0.688506	 1.342445	 -0.838976
N	 1.813038	 -0.320305	 0.000000
