%nprocshared=1
%mem=2GB
#HF/6-31G* nosymm scf=tight 

Mol

0 1
O	 -2.324811	 1.361668	 -0.277141
C	 -2.105949	 0.203097	 -0.092081
C	 -0.889235	 -0.467034	 -0.705952
C	 -3.002726	 -0.644460	 0.782455
C	 -0.955326	 -1.992473	 -0.527591
H	 -0.010961	 -0.081276	 -0.199858
H	 -0.807967	 -0.219662	 -1.760574
C	 0.273529	 -2.697429	 -1.106872
H	 -1.053912	 -2.205171	 0.530910
H	 -1.851186	 -2.379390	 -1.010786
C	 0.226732	 -4.227129	 -1.018096
H	 1.166041	 -2.335407	 -0.599834
H	 0.380315	 -2.414008	 -2.151917
C	 0.266351	 -4.781381	 0.407117
H	 1.071733	 -4.627546	 -1.572469
H	 -0.666160	 -4.589418	 -1.523645
H	 1.144460	 -4.426244	 0.939591
H	 0.303740	 -5.866226	 0.396452
H	 -0.607666	 -4.492308	 0.980982
H	 -3.496582	 -1.399307	 0.176174
H	 -3.747939	 -0.023774	 1.260148
H	 -2.421318	 -1.168775	 1.535358

6 3 5 8 F

3 5 8 12 F

12 8 11 15 F

