%nprocshared=1
%mem=2GB
#HF/6-31G* nosymm scf=tight 

Mol

0 1
H	 -1.344936	 1.807562	 0.144251
N	 -1.235383	 0.827749	 0.320148
C	 0.160901	 0.440316	 0.223239
H	 -1.766843	 0.338534	 -0.373631
C	 0.618562	 0.512333	 -1.218460
H	 0.829857	 1.054697	 0.827420
H	 0.261158	 -0.584769	 0.566649
O	 -0.088814	 -0.446451	 -1.951562
H	 0.431449	 1.506493	 -1.623767
H	 1.687119	 0.316303	 -1.273162
C	 0.295968	 -0.548357	 -3.285402
H	 1.077210	 -1.293847	 -3.345427
H	 -0.534823	 -0.858547	 -3.916710
H	 0.680852	 0.397273	 -3.661511

8 5 3 6 F

6 3 2 4 F

11 8 5 3 F

