%nprocshared=1
%mem=2GB
#HF/6-31G* nosymm scf=tight 

Mol

0 1
O	 -2.324811	 1.361668	 -0.277141
C	 -2.105949	 0.203097	 -0.092081
C	 -0.889235	 -0.467034	 -0.705952
C	 -3.002726	 -0.644460	 0.782455
C	 0.322356	 -0.371572	 0.235365
H	 -0.666151	 0.044600	 -1.635880
H	 -1.100687	 -1.507711	 -0.934659
C	 1.576305	 -1.009285	 -0.367583
H	 0.495789	 0.675171	 0.458153
H	 0.091267	 -0.860113	 1.180708
C	 2.797665	 -1.003817	 0.558864
H	 1.826992	 -0.498249	 -1.295335
H	 1.350861	 -2.038851	 -0.637801
C	 3.348878	 0.387960	 0.873692
H	 3.582859	 -1.593485	 0.092544
H	 2.547056	 -1.513374	 1.487107
H	 3.598198	 0.924254	 -0.037874
H	 4.251955	 0.317146	 1.471887
H	 2.638449	 0.991466	 1.428546
H	 -3.496582	 -1.399307	 0.176174
H	 -3.747939	 -0.023774	 1.260148
H	 -2.421318	 -1.168775	 1.535358

6 3 5 8 F

3 5 8 12 F

12 8 11 15 F

