%nprocshared=1
%mem=2GB
#HF/6-31G* nosymm scf=tight opt=ModRedundant

Mol

0 1
H	 -3.194000	 0.530000	 0.000000
C	 -2.399000	 -0.203000	 0.000000
O	 -1.190000	 0.485000	 0.000000
H	 -2.500000	 -0.832000	 -0.883000
H	 -2.500000	 -0.832000	 0.883000
C	 -0.062000	 -0.336000	 -0.000000
C	 1.180000	 0.538000	 -0.000000
H	 -0.069000	 -0.984000	 -0.878000
H	 -0.069000	 -0.984000	 0.878000
C	 2.471000	 -0.280000	 0.000000
H	 1.146000	 1.185000	 -0.872000
H	 1.146000	 1.185000	 0.871000
H	 2.536000	 -0.917000	 -0.877000
H	 3.341000	 0.369000	 -0.000000
H	 2.537000	 -0.917000	 0.878000
