%nprocshared=1
%mem=2GB
#HF/6-31G* nosymm scf=tight 

Mol

0 1
O	 3.225979	 0.970355	 -0.599647
C	 2.701189	 0.057885	 -0.047330
C	 1.245376	 -0.013843	 0.345420
O	 3.347903	 -1.046386	 0.304773
C	 0.455112	 1.231400	 -0.050772
H	 0.838542	 -0.913825	 -0.103701
H	 1.208210	 -0.175333	 1.419774
C	 -0.998893	 1.219485	 0.433193
H	 0.482531	 1.345121	 -1.130325
H	 0.957290	 2.103070	 0.354729
C	 -1.883438	 0.145884	 -0.207175
H	 -1.431207	 2.195402	 0.224832
H	 -1.019646	 1.105716	 1.516076
C	 -1.478418	 -0.177830	 -1.646678
H	 -1.835245	 -0.761747	 0.392577
H	 -2.923742	 0.463151	 -0.198112
C	 -1.743595	 0.969203	 -2.623473
H	 -2.014874	 -1.064355	 -1.980630
H	 -0.420570	 -0.434553	 -1.674052
C	 -1.232569	 2.316899	 -2.115273
H	 -1.275589	 0.743311	 -3.579289
H	 -2.812158	 1.038444	 -2.816244
H	 -1.435164	 3.109416	 -2.829051
H	 -0.159809	 2.290785	 -1.945863
H	 -1.707815	 2.587802	 -1.176643
C	 4.728119	 -1.109107	 -0.004993
H	 4.882018	 -1.033965	 -1.071845
H	 5.068212	 -2.067527	 0.355250
H	 5.265056	 -0.311663	 0.488280

21 17 14 11 F

17 14 11 15 F

6 3 5 9 F

11 8 5 9 F

2 4 26 27 F

1 2 4 26 F

6 3 2 1 F

