%nprocshared=1
%mem=2GB
#HF/6-31G* nosymm scf=tight 

Mol

0 1
H	 -2.646374	 -0.642757	 1.268656
C	 -2.083525	 -0.384536	 0.393091
O	 -0.807605	 -0.127164	 0.768327
F	 -2.118945	 -1.383102	 -0.486752
F	 -2.621877	 0.670592	 -0.209486
C	 0.084052	 0.273579	 -0.209957
C	 0.317685	 -0.927185	 -1.117558
Cl	 1.608314	 0.817531	 0.509736
H	 -0.300472	 1.080578	 -0.808846
F	 0.983491	 -1.864609	 -0.477185
F	 1.041584	 -0.543996	 -2.150309
F	 -0.804857	 -1.436215	 -1.563385

10 7 6 9 F

6 3 2 4 F

