%nprocshared=1
%mem=2GB
#HF/6-31G* nosymm scf=tight 

Mol

0 1
H	 2.762751	 1.921259	 -1.173584
N	 2.000309	 1.273642	 -1.226681
C	 1.865559	 0.531981	 0.018834
H	 2.201831	 0.651008	 -1.985988
C	 0.645745	 -0.382037	 -0.029944
H	 1.740934	 1.253718	 0.820347
H	 2.751575	 -0.058782	 0.264545
C	 -0.679275	 0.379305	 0.025956
H	 0.698998	 -0.976915	 -0.937203
H	 0.693479	 -1.083846	 0.802235
C	 -0.621101	 1.741896	 -0.667108
H	 -0.971041	 0.519803	 1.065659
H	 -1.464156	 -0.220975	 -0.431725
C	 -1.946094	 2.500893	 -0.605263
H	 0.161506	 2.343871	 -0.210637
H	 -0.332306	 1.604447	 -1.706993
H	 -2.245318	 2.684101	 0.422948
H	 -1.872836	 3.462270	 -1.104254
H	 -2.742752	 1.939186	 -1.085068

6 3 5 9 F

12 8 11 15 F

1 2 3 6 F

