%nprocshared=1
%mem=2GB
#HF/6-31G* nosymm scf=tight 

Mol

0 1
O	 -3.853486	 4.767425	 2.367791
C	 -3.589812	 4.457530	 1.246542
C	 -2.652680	 3.307590	 0.923494
C	 -4.178810	 5.198743	 0.063816
C	 -2.933125	 2.035105	 1.717450
H	 -2.717326	 3.115698	 -0.146734
H	 -1.633034	 3.650735	 1.093720
C	 -2.932105	 0.783337	 0.838337
H	 -3.890412	 2.132849	 2.219621
H	 -2.190913	 1.935142	 2.503120
C	 -4.178549	 0.669528	 -0.040956
H	 -2.045861	 0.784372	 0.205394
H	 -2.854950	 -0.102487	 1.467169
C	 -4.426912	 1.908957	 -0.902436
H	 -5.047839	 0.490128	 0.589258
H	 -4.085402	 -0.202897	 -0.685312
C	 -4.957464	 3.096999	 -0.100717
H	 -3.501657	 2.193665	 -1.399092
H	 -5.133467	 1.662840	 -1.692413
H	 -4.257126	 3.389432	 0.676560
H	 -5.122943	 3.959986	 -0.738346
H	 -5.901076	 2.855254	 0.380221
H	 -4.744894	 4.518640	 -0.565967
H	 -4.826996	 5.989572	 0.414927
H	 -3.388670	 5.622899	 -0.548887

9 5 8 12 F

15 11 8 12 F

15 11 14 18 F

1 2 3 6 F

