%nprocshared=1
%mem=2GB
#HF/6-31G* nosymm scf=tight 

Mol

0 1
H	 -2.153054	 -2.250733	 0.000000
O	 -2.462445	 -1.355403	 0.000000
C	 -1.434260	 -0.483044	 0.000000
C	 -1.086623	 0.093376	 -1.217209
C	 -0.734827	 -0.154565	 1.145778
H	 -1.644222	 -0.176939	 -2.094117
C	 -0.042886	 0.993463	 -1.280056
H	 -0.993336	 -0.592968	 2.093159
C	 0.316172	 0.755624	 1.065889
H	 0.219422	 1.434340	 -2.224192
C	 0.671172	 1.335720	 -0.140199
C	 1.043009	 1.094081	 2.269073
H	 1.483459	 2.035487	 -0.185978
N	 1.612653	 1.358442	 3.215922

14 12 9 5 F

