%nprocshared=1
%mem=2GB
#HF/6-31G* nosymm scf=tight 

Mol

0 1
H	 3.083879	 -1.346558	 0.395444
O	 2.172668	 -1.603300	 0.415122
C	 1.365383	 -0.540424	 0.207814
C	 0.788674	 -0.273658	 -1.027316
C	 1.119980	 0.297702	 1.281477
H	 0.980943	 -0.927172	 -1.861574
C	 -0.032261	 0.829951	 -1.187892
H	 1.564811	 0.092792	 2.236052
C	 0.296924	 1.400423	 1.112234
H	 -0.472901	 1.026130	 -2.148479
C	 -0.282977	 1.672922	 -0.120336
C	 0.029083	 2.304976	 2.261545
H	 -0.920319	 2.530708	 -0.242821
O	 0.333027	 2.072570	 3.387667
H	 -0.484850	 3.236277	 2.005028

11 9 12 14 F

