%nprocshared=1
%mem=2GB
#HF/6-31G* nosymm scf=tight 

Mol

0 1
H	 -1.070890	 -1.366565	 0.180696
O	 -1.422729	 -0.573567	 -0.196946
C	 -0.731407	 0.539437	 0.309156
C	 0.680193	 0.672443	 -0.251532
H	 -1.319765	 1.404033	 0.030086
H	 -0.700012	 0.506517	 1.397677
C	 1.743513	 0.923846	 0.817977
H	 0.921015	 -0.233137	 -0.800690
H	 0.686302	 1.490721	 -0.968417
H	 1.814597	 0.090239	 1.510250
H	 2.723415	 1.052706	 0.370592
H	 1.523130	 1.821169	 1.391131

1 2 3 4 F

