%nprocshared=1
%mem=2GB
#HF/6-31G* nosymm scf=tight 

Mol

0 1
H	 -2.240291	 0.559484	 0.604969
C	 -2.008299	 -0.205926	 -0.129530
O	 -0.774054	 0.001095	 -0.743181
H	 -2.752932	 -0.160639	 -0.912984
H	 -2.076115	 -1.178578	 0.348530
C	 0.342207	 0.386473	 0.039109
C	 1.519713	 0.260075	 -0.925004
C	 0.209569	 1.836883	 0.514405
C	 0.536823	 -0.559415	 1.228452
H	 1.372325	 0.908575	 -1.781249
H	 1.599733	 -0.759475	 -1.284853
H	 2.452281	 0.531268	 -0.440822
H	 0.000561	 2.489853	 -0.326413
H	 1.132674	 2.165671	 0.980642
H	 -0.583017	 1.957226	 1.245077
H	 0.558134	 -1.589733	 0.889275
H	 1.475504	 -0.345551	 1.729125
H	 -0.253267	 -0.458864	 1.964848

2 3 6 7 F

