%nprocshared=8
%mem=2GB
#B3LYP/6-31G* nosymm scf=tight
# opt=ModRedundant  EmpiricalDispersion=GD3

Mol

1 1
C	 -0.000000	 -0.000000	 -0.191639
C	 0.813320	 -0.909246	 0.510391
C	 0.812574	 -0.901328	 1.901670
C	 -0.000000	 0.000000	 2.596333
C	 -0.812574	 0.901328	 1.901670
C	 -0.813320	 0.909247	 0.510391
C	 -0.000000	 -0.000000	 -1.658508
H	 1.477884	 -1.581814	 -0.024627
H	 1.452183	 -1.589943	 2.444112
H	 -0.000000	 0.000000	 3.681982
H	 -1.452184	 1.589943	 2.444112
H	 -1.477885	 1.581814	 -0.024627
N	 -0.712589	 -0.905950	 -2.322235
N	 0.712590	 0.905950	 -2.322235
H	 0.673432	 1.006470	 -3.329771
H	 1.377190	 1.485970	 -1.827091
H	 -1.377189	 -1.485970	 -1.827091
H	 -0.673431	 -1.006470	 -3.329771

2 1 7 13 F
