%nprocshared=1
%mem=2GB
#HF/6-31G* nosymm scf=tight 

Mol

0 1
H	 -2.798360	 -0.862255	 -0.071053
N	 -1.863561	 -0.715187	 0.256814
C	 -1.344686	 0.554728	 -0.219830
H	 -1.300452	 -1.461917	 -0.101532
C	 -1.561016	 0.673596	 -1.713887
H	 -1.796219	 1.422446	 0.263063
H	 -0.277839	 0.590064	 -0.021415
O	 -0.791801	 -0.307965	 -2.347868
H	 -2.615114	 0.536095	 -1.953908
H	 -1.260257	 1.663678	 -2.049322
C	 -0.830104	 -0.258289	 -3.738421
H	 -0.205219	 -1.057800	 -4.112584
H	 -1.842195	 -0.398399	 -4.113951
H	 -0.451327	 0.690435	 -4.112934

8 5 3 6 F

5 8 11 13 F

11 8 5 3 F

