%nprocshared=1
%mem=2GB
#HF/6-31G* nosymm scf=tight 

Mol

0 1
H	 -1.836216	 1.387520	 -0.000064
C	 -1.301823	 0.443321	 -0.000031
O	 -0.003969	 0.658512	 0.000451
O	 -1.829879	 -0.616434	 -0.000857
C	 0.463454	 1.848408	 0.635155
C	 0.010140	 3.020686	 -0.207810
H	 1.541036	 1.801977	 0.712474
H	 0.057523	 1.892459	 1.636442
H	 0.419696	 2.955691	 -1.209346
H	 0.346820	 3.949099	 0.241555
H	 -1.070994	 3.046751	 -0.281007

7 5 3 2 F

