%nprocshared=1
%mem=2GB
#HF/6-31G* nosymm scf=tight 

Mol

0 1
H	 -1.718180	 2.116119	 -0.779392
C	 -1.187876	 2.280616	 0.150697
C	 0.142680	 1.537454	 0.160132
H	 -1.827880	 1.941592	 0.956140
H	 -1.025305	 3.346941	 0.268159
C	 -0.000005	 0.033229	 -0.000001
H	 0.683427	 1.725944	 1.085583
H	 0.792231	 1.898983	 -0.634711
C	 1.290528	 -0.768786	 0.000276
O	 -1.065946	 -0.489031	 -0.119163
C	 2.545731	 0.095645	 -0.000061
H	 1.275672	 -1.427874	 -0.865626
H	 1.275566	 -1.427086	 0.866768
H	 2.577157	 0.734767	 -0.874036
H	 3.433520	 -0.528139	 0.000137
H	 2.577172	 0.735117	 0.873581
