%nprocshared=1
%mem=2GB
#HF/6-31G* nosymm scf=tight 

Mol

0 1
H	 -2.388041	 -1.459052	 2.600629
O	 -1.775466	 -1.420099	 1.880116
C	 -2.181131	 -0.431937	 0.968215
C	 -1.177863	 -0.397191	 -0.171080
H	 -3.175813	 -0.651595	 0.582642
H	 -2.227468	 0.541846	 1.453951
C	 0.198102	 0.111031	 0.262842
H	 -1.578279	 0.233568	 -0.960091
H	 -1.094723	 -1.398689	 -0.584076
C	 1.331804	 -0.827780	 -0.158768
H	 0.361943	 1.100838	 -0.156218
H	 0.217265	 0.229072	 1.345532
C	 2.723619	 -0.410569	 0.329459
H	 1.342964	 -0.912588	 -1.244120
H	 1.116806	 -1.824343	 0.220779
C	 3.243875	 0.895854	 -0.272975
H	 3.424222	 -1.207124	 0.091250
H	 2.714788	 -0.329854	 1.414619
H	 3.251977	 0.848779	 -1.358681
H	 2.637085	 1.747371	 0.016682
H	 4.259473	 1.094070	 0.055697

2 3 4 8 F

4 7 10 14 F

16 13 10 14 F

1 2 3 5 F

