%nprocshared=1
%mem=2GB
#HF/6-31G* nosymm scf=tight 

Mol

0 1
O	 1.066834	 -2.032293	 1.712165
C	 0.275803	 -1.645901	 0.914452
C	 -1.147444	 -2.120194	 0.804999
O	 0.550821	 -0.724572	 0.000672
H	 -1.823175	 -1.281819	 0.928282
H	 -1.339790	 -2.865528	 1.562212
H	 -1.318951	 -2.538157	 -0.180127
C	 1.722900	 -0.916058	 -0.771237
H	 1.756707	 -0.212766	 -1.590744
H	 1.666903	 -1.925840	 -1.146675
H	 2.604640	 -0.791913	 -0.159300

2 4 8 9 F

