%nprocshared=1
%mem=2GB
#HF/6-31G* nosymm scf=tight 

Mol

0 1
O	 1.161537	 0.587622	 -2.238553
C	 0.431889	 0.768920	 -1.300765
C	 -0.732288	 1.734909	 -1.417578
N	 0.623947	 0.147590	 -0.102813
H	 -0.655698	 2.539027	 -0.693968
H	 -0.707504	 2.150969	 -2.413231
H	 -1.682599	 1.234577	 -1.265397
C	 1.665360	 -0.855771	 0.000151
C	 -0.339289	 0.153321	 0.976255
H	 2.465253	 -0.618490	 -0.692587
H	 1.257730	 -1.821716	 -0.242189
H	 2.081488	 -0.891645	 1.004627
H	 0.187771	 0.108792	 1.921909
H	 -0.931416	 1.054609	 0.975135
H	 -1.010789	 -0.701884	 0.926013

8 4 2 3 F

