%nprocshared=1
%mem=2GB
#HF/6-31G* nosymm scf=tight 

Mol

0 1
H	 -1.766204	 2.223010	 -0.921180
C	 -0.748240	 1.852425	 -0.953445
C	 -0.603454	 0.661669	 0.000000
H	 -0.081647	 2.658436	 -0.671591
H	 -0.521557	 1.563305	 -1.972496
C	 0.763625	 0.112519	 0.000000
H	 -0.845395	 0.951876	 1.015782
H	 -1.282518	 -0.136315	 -0.276880
N	 1.813038	 -0.320305	 0.000000
