%nprocshared=1
%mem=2GB
#HF/6-31G* nosymm scf=tight 

Mol

0 1
H	 3.083879	 -1.346558	 0.395444
O	 2.172668	 -1.603300	 0.415122
C	 1.365383	 -0.540424	 0.207814
C	 1.115047	 -0.032220	 -1.060399
C	 0.778700	 0.045237	 1.316072
H	 1.572620	 -0.489474	 -1.921550
C	 0.279029	 1.060230	 -1.219446
H	 0.971225	 -0.346319	 2.296222
C	 -0.057001	 1.138604	 1.148110
H	 0.092824	 1.444630	 -2.205824
C	 -0.311542	 1.651790	 -0.117441
C	 -0.690564	 1.772611	 2.334493
H	 -0.961249	 2.500430	 -0.238673
O	 -0.676462	 1.314474	 3.431970
H	 -1.192257	 2.724430	 2.135511

11 9 12 14 F

