%nprocshared=1
%mem=2GB
#HF/6-31G* nosymm scf=tight 

Mol

0 1
H	 1.036003	 -4.747238	 1.313282
C	 1.069509	 -4.143339	 0.412208
C	 -0.135822	 -3.207549	 0.331964
H	 2.000640	 -3.583824	 0.425025
H	 1.102414	 -4.819836	 -0.437213
C	 -0.127859	 -2.340084	 -0.922563
H	 -0.164616	 -2.557998	 1.201242
H	 -1.051072	 -3.796772	 0.354896
N	 -1.268658	 -1.446027	 -0.948991
H	 0.773177	 -1.732633	 -0.932595
H	 -0.079238	 -2.979956	 -1.810018
C	 -1.217365	 -0.386708	 0.039277
H	 -1.355622	 -1.044301	 -1.863373
C	 -2.452633	 0.504241	 -0.042481
H	 -1.172857	 -0.848333	 1.022069
H	 -0.315698	 0.227728	 -0.054795
C	 -3.758029	 -0.289423	 -0.010781
H	 -2.394220	 1.093569	 -0.952170
H	 -2.440793	 1.210787	 0.785871
H	 -3.816659	 -0.981993	 -0.845726
H	 -4.617837	 0.370165	 -0.069296
H	 -3.847478	 -0.867502	 0.904682

15 12 14 18 F

