%nprocshared=1
%mem=2GB
#HF/6-31G* nosymm scf=tight 

Mol

0 1
H	 0.990270	 -0.164946	 1.386473
C	 0.018837	 -0.579025	 1.137077
N	 -0.528168	 0.128977	 -0.000000
H	 -0.628094	 -0.443721	 1.996268
H	 0.147628	 -1.651767	 0.970029
C	 0.248044	 -0.037491	 -1.209632
H	 -1.470984	 -0.165193	 -0.159970
H	 0.998722	 0.743888	 -1.266824
H	 -0.398417	 0.061950	 -2.074060
H	 0.763621	 -0.999315	 -1.275517
