%nprocshared=1
%mem=2GB
#HF/6-31G* nosymm scf=tight 

Mol

0 1
O	 -2.821601	 1.309235	 -0.001213
C	 -2.668563	 0.129746	 -0.000350
C	 -3.801572	 -0.864014	 -0.000442
O	 -1.481751	 -0.454642	 0.000584
H	 -4.417280	 -0.689587	 -0.874708
H	 -3.443784	 -1.883046	 -0.000565
H	 -4.417179	 -0.689832	 0.873954
C	 -0.334255	 0.388708	 0.000906
C	 0.891947	 -0.504646	 0.000751
H	 -0.365390	 1.025305	 -0.873475
H	 -0.365484	 1.024911	 0.875569
C	 1.190483	 -1.073115	 1.389344
H	 1.743077	 0.067382	 -0.358138
H	 0.736690	 -1.313958	 -0.707324
C	 2.424630	 -1.976861	 1.410579
H	 1.333425	 -0.255760	 2.094031
H	 0.328990	 -1.635572	 1.745090
C	 2.723543	 -2.543547	 2.797801
H	 3.286534	 -1.416270	 1.055707
H	 2.282530	 -2.795484	 0.708629
H	 2.903872	 -1.748553	 3.515771
H	 3.603152	 -3.179339	 2.780747
H	 1.892494	 -3.138395	 3.165935

2 4 8 10 F

16 12 9 13 F

19 15 12 16 F

1 2 4 8 F

