%nprocshared=1
%mem=2GB
#HF/6-31G* nosymm scf=tight 

Mol

0 1
O	 -1.528100	 -1.555735	 1.366598
C	 -0.451170	 -1.129930	 1.097049
C	 0.801727	 -1.959116	 0.945507
O	 -0.204884	 0.156515	 0.892090
C	 1.124911	 -2.785238	 2.184071
H	 1.613075	 -1.280220	 0.700432
H	 0.669725	 -2.590969	 0.072237
H	 1.272053	 -2.149836	 3.048928
H	 2.030738	 -3.360307	 2.024106
H	 0.320287	 -3.472711	 2.414906
C	 -1.298446	 1.061566	 1.003474
C	 -2.229943	 0.793143	 -0.159528
H	 -0.920553	 2.074739	 0.987328
H	 -1.790162	 0.905213	 1.953927
H	 -1.721018	 0.948812	 -1.103944
H	 -3.081373	 1.464404	 -0.113438
H	 -2.595499	 -0.227089	 -0.132115

2 4 11 13 F

11 4 2 3 F

