%nprocshared=1
%mem=2GB
#HF/6-31G* nosymm scf=tight 

Mol

0 1
H	 -3.420663	 1.227371	 -1.044276
O	 -3.452007	 0.283848	 -0.965577
C	 -3.181085	 -0.079926	 0.364119
C	 -1.765924	 0.277073	 0.805136
H	 -3.327791	 -1.152017	 0.410903
H	 -3.905698	 0.375695	 1.036898
C	 -0.677594	 -0.417312	 -0.014550
H	 -1.637766	 1.358238	 0.744969
H	 -1.659588	 0.017670	 1.857098
C	 0.288044	 0.563314	 -0.683201
H	 -1.144225	 -1.043830	 -0.768500
H	 -0.118033	 -1.087867	 0.635558
C	 0.800946	 1.639187	 0.277796
H	 1.124825	 0.007358	 -1.099291
H	 -0.208712	 1.043179	 -1.525559
C	 -0.266274	 2.626279	 0.764464
H	 1.609145	 2.191556	 -0.199068
H	 1.239545	 1.150256	 1.145202
C	 0.176021	 3.520113	 1.924568
H	 -1.141847	 2.061162	 1.074794
H	 -0.587324	 3.248404	 -0.068657
H	 0.514673	 2.924789	 2.768395
H	 -0.645950	 4.140738	 2.268116
H	 0.986675	 4.183052	 1.640816

20 16 13 17 F

17 13 10 7 F

13 10 7 11 F

1 2 3 5 F

7 4 3 2 F

