%nprocshared=1
%mem=2GB
#HF/6-31G* nosymm scf=tight 

Mol

0 1
O	 -1.487788	 1.240889	 -0.102860
C	 -1.083277	 0.139568	 0.115197
C	 0.323299	 -0.082943	 0.642902
C	 -1.933017	 -1.084621	 -0.143902
C	 1.355627	 -0.005344	 -0.493127
H	 0.396251	 -1.044647	 1.143147
H	 0.528637	 0.693580	 1.371677
C	 0.802520	 0.692080	 -1.734465
H	 2.242292	 0.521967	 -0.148104
H	 1.669827	 -1.013100	 -0.743819
H	 1.547181	 0.728857	 -2.523021
H	 0.503263	 1.712455	 -1.512872
H	 -0.065951	 0.168153	 -2.122157
H	 -1.393885	 -1.806447	 -0.750509
H	 -2.850323	 -0.799888	 -0.640100
H	 -2.169004	 -1.571158	 0.798858

4 2 3 5 F

