%nprocshared=1
%mem=2GB
#HF/6-31G* nosymm scf=tight 

Mol

0 1
O	 -1.276010	 1.052711	 -0.768302
C	 -1.204840	 0.067374	 -0.106123
C	 -2.388195	 -0.672128	 0.458071
O	 -0.067104	 -0.527208	 0.221609
H	 -2.388023	 -1.694060	 0.097175
H	 -3.300579	 -0.174919	 0.164318
H	 -2.315377	 -0.706351	 1.539059
C	 1.170111	 0.034140	 -0.238951
C	 0.902506	 0.533595	 -1.647681
C	 2.265964	 -1.018514	 -0.178355
H	 1.421149	 0.860619	 0.409446
H	 0.105790	 1.268776	 -1.648395
H	 1.795323	 0.995214	 -2.056480
H	 0.612148	 -0.285880	 -2.296377
H	 3.199866	 -0.606571	 -0.547334
H	 2.422722	 -1.351391	 0.839779
H	 2.003796	 -1.874500	 -0.792002

8 4 2 1 F

