%nprocshared=1
%mem=2GB
#HF/6-31G* nosymm scf=tight 

Mol

0 1
H	 -1.836216	 1.387520	 -0.000064
C	 -1.301823	 0.443321	 -0.000031
O	 -0.003969	 0.658512	 0.000451
O	 -1.829879	 -0.616434	 -0.000857
C	 0.802242	 -0.191632	 -0.814697
C	 0.771879	 -1.573516	 -0.198422
H	 1.805584	 0.209949	 -0.851513
H	 0.404258	 -0.191014	 -1.820134
H	 1.166594	 -1.553502	 0.810950
H	 1.375655	 -2.253674	 -0.790092
H	 -0.241464	 -1.956552	 -0.162284

7 5 3 2 F

