%nprocshared=1
%mem=2GB
#HF/6-31G* nosymm scf=tight 

Mol

0 1
H	 0.821610	 0.566793	 2.259340
C	 -0.134458	 0.623739	 1.757348
O	 0.000000	 0.000000	 0.521119
H	 -0.885419	 0.131078	 2.373003
H	 -0.412824	 1.670713	 1.647582
C	 -1.165642	 0.000000	 -0.238270
H	 -1.228672	 0.883184	 -0.872070
H	 -2.003012	 0.000000	 0.445920
H	 -1.228672	 -0.883184	 -0.872070
