%nprocshared=1
%mem=2GB
#HF/6-31G* nosymm scf=tight 

Mol

0 1
H	 -0.084817	 -1.611004	 -3.139083
O	 0.152500	 -0.932153	 -2.523660
C	 -1.004659	 -0.426129	 -1.909240
C	 -0.587090	 0.657409	 -0.930809
H	 -1.684860	 -0.014427	 -2.653643
H	 -1.536921	 -1.217912	 -1.383771
C	 0.198102	 0.111031	 0.262842
H	 -1.481014	 1.171010	 -0.587527
H	 0.008066	 1.391383	 -1.467045
C	 1.331804	 -0.827780	 -0.158768
H	 0.600023	 0.942329	 0.836930
H	 -0.478057	 -0.423485	 0.928890
C	 2.723619	 -0.410569	 0.329459
H	 1.342964	 -0.912588	 -1.244120
H	 1.116806	 -1.824343	 0.220779
C	 3.243875	 0.895854	 -0.272975
H	 3.424222	 -1.207124	 0.091250
H	 2.714788	 -0.329854	 1.414619
H	 3.251977	 0.848779	 -1.358681
H	 2.637085	 1.747371	 0.016682
H	 4.259473	 1.094070	 0.055697

2 3 4 8 F

8 4 7 10 F

16 13 10 14 F

1 2 3 5 F

