%nprocshared=1
%mem=2GB
#HF/6-31G* nosymm scf=tight 

Mol

0 1
H	 2.866480	 -0.465706	 0.876907
C	 2.405773	 -0.024801	 0.000000
N	 0.988830	 -0.304158	 0.000000
H	 2.866480	 -0.465706	 -0.876907
H	 2.629928	 1.045948	 0.000000
C	 0.247162	 0.597100	 0.862341
C	 0.697366	 -1.686409	 0.332265
H	 0.565166	 0.508413	 1.906135
H	 0.429793	 1.619759	 0.547602
C	 -1.238922	 0.293497	 0.765534
H	 1.209657	 -2.335837	 -0.370619
H	 1.048177	 -1.941493	 1.337433
C	 -0.800656	 -1.929455	 0.249515
H	 -1.799558	 0.895903	 1.468250
H	 -1.591727	 0.514562	 -0.240264
O	 -1.497947	 -1.045515	 1.081613
H	 -1.045175	 -2.930448	 0.580030
H	 -1.132842	 -1.812978	 -0.780561
