%nprocshared=1
%mem=2GB
#HF/6-31G* nosymm scf=tight opt=ModRedundant

Mol

0 1
H	 1.281000	 -0.083000	 -1.464000
C	 1.135000	 -0.107000	 -0.384000
O	 0.000000	 -0.887000	 -0.102000
C	 2.348000	 -0.735000	 0.273000
C	 0.771000	 1.305000	 0.109000
C	 -1.135000	 -0.108000	 -0.384000
H	 2.507000	 -1.739000	 -0.104000
H	 3.239000	 -0.148000	 0.070000
H	 2.207000	 -0.791000	 1.347000
H	 1.154000	 1.465000	 1.111000
H	 1.196000	 2.073000	 -0.528000
C	 -0.772000	 1.305000	 0.106000
H	 -1.282000	 -0.086000	 -1.465000
C	 -2.348000	 -0.736000	 0.274000
H	 -1.158000	 1.469000	 1.106000
H	 -1.194000	 2.072000	 -0.534000
H	 -2.506000	 -1.740000	 -0.101000
H	 -3.239000	 -0.149000	 0.070000
H	 -2.206000	 -0.789000	 1.348000
