%nprocshared=1
%mem=2GB
#HF/6-31G* nosymm scf=tight 

Mol

0 1
H	 0.674387	 -3.106567	 3.822706
C	 0.617895	 -3.868945	 3.051920
C	 1.358291	 -5.137280	 3.474196
H	 -0.432179	 -4.074629	 2.866499
H	 1.039485	 -3.451079	 2.141728
C	 1.304075	 -6.231600	 2.405863
H	 0.929267	 -5.511902	 4.397883
H	 2.397985	 -4.892854	 3.686293
C	 1.646711	 -5.737294	 1.000328
H	 1.982947	 -7.033957	 2.672322
H	 0.303444	 -6.657390	 2.383916
C	 3.114438	 -5.390590	 0.798294
H	 1.407484	 -6.509501	 0.270782
H	 1.035657	 -4.878807	 0.730534
C	 3.475324	 -4.538016	 -0.405696
O	 3.959187	 -5.785981	 1.544264
C	 3.142513	 -5.197708	 -1.752249
H	 4.537138	 -4.332686	 -0.341611
H	 2.946782	 -3.589635	 -0.328876
C	 3.906992	 -6.506058	 -1.962969
H	 2.073565	 -5.394231	 -1.800676
H	 3.371148	 -4.517137	 -2.568350
C	 3.584233	 -7.172245	 -3.299729
H	 3.675183	 -7.191428	 -1.151430
H	 4.975620	 -6.311267	 -1.903941
H	 2.526789	 -7.408725	 -3.374670
H	 3.837980	 -6.523738	 -4.133494
H	 4.139105	 -8.097216	 -3.419829

10 6 3 2 F

16 12 15 17 F

