%nprocshared=1
%mem=2GB
#HF/6-31G* nosymm scf=tight 

Mol

0 1
H	 -1.914699	 -0.520592	 1.904295
C	 -2.706119	 0.218643	 1.728773
C	 -3.886983	 -0.287124	 0.939869
O	 -2.594388	 1.324377	 2.149034
C	 -4.312667	 0.683856	 -0.170197
H	 -3.639064	 -1.264093	 0.541401
H	 -4.710691	 -0.411986	 1.641702
C	 -4.902224	 1.994114	 0.357958
H	 -3.446321	 0.901188	 -0.787849
H	 -5.033723	 0.193343	 -0.822295
C	 -6.253274	 1.803461	 1.050150
H	 -5.012929	 2.693189	 -0.468411
H	 -4.205550	 2.458466	 1.053344
C	 -7.144331	 3.045428	 0.963640
H	 -6.759475	 0.950440	 0.605350
H	 -6.089580	 1.551128	 2.097010
C	 -8.476090	 2.930578	 1.714174
H	 -7.340708	 3.275648	 -0.082366
H	 -6.595566	 3.895780	 1.362978
C	 -9.441535	 1.892099	 1.140506
H	 -8.962502	 3.902772	 1.700334
H	 -8.281521	 2.704290	 2.760528
H	 -9.641833	 2.084110	 0.089658
H	 -9.050397	 0.883621	 1.223924
H	 -10.390864	 1.916855	 1.666962

6 3 5 8 F

6 3 2 4 F

3 5 8 12 F

8 11 14 18 F

20 17 14 18 F

