%nprocshared=1
%mem=2GB
#HF/6-31G* nosymm scf=tight 

Mol

0 1
H	 -0.678993	 -3.545521	 -0.429167
O	 -0.547207	 -2.629188	 -0.626325
C	 -1.414896	 -1.848480	 0.154829
C	 -1.176190	 -0.388251	 -0.186487
H	 -2.452473	 -2.113217	 -0.044309
H	 -1.232930	 -2.018007	 1.215248
C	 0.198102	 0.111031	 0.262842
H	 -1.959964	 0.203939	 0.277987
H	 -1.287180	 -0.265587	 -1.260318
C	 1.331804	 -0.827780	 -0.158768
H	 0.368616	 1.104137	 -0.145619
H	 0.209244	 0.218858	 1.346709
C	 2.723619	 -0.410569	 0.329459
H	 1.342964	 -0.912588	 -1.244120
H	 1.116806	 -1.824343	 0.220779
C	 3.243875	 0.895854	 -0.272975
H	 3.424222	 -1.207124	 0.091250
H	 2.714788	 -0.329854	 1.414619
H	 3.251977	 0.848779	 -1.358681
H	 2.637085	 1.747371	 0.016682
H	 4.259473	 1.094070	 0.055697

2 3 4 8 F

8 4 7 10 F

16 13 10 14 F

1 2 3 5 F

