%nprocshared=1
%mem=2GB
#HF/6-31G* nosymm scf=tight 

Mol

0 1
H	 -3.457960	 0.166880	 1.449720
O	 -3.367910	 -0.300316	 2.267454
C	 -3.043259	 -1.643282	 2.012310
C	 -1.609705	 -1.833855	 1.529264
H	 -3.184960	 -2.163733	 2.950780
H	 -3.740919	 -2.074362	 1.295219
C	 -1.314720	 -1.174099	 0.179978
H	 -0.935821	 -1.437562	 2.284379
H	 -1.414703	 -2.902721	 1.459510
C	 -1.847181	 -1.985922	 -1.004187
H	 -0.241675	 -1.040292	 0.074927
H	 -1.758546	 -0.178651	 0.158935
C	 -3.289415	 -2.481915	 -0.848322
H	 -1.767732	 -1.389829	 -1.911495
H	 -1.200537	 -2.848450	 -1.151148
C	 -3.496058	 -3.527586	 0.250927
H	 -3.924432	 -1.624566	 -0.634960
H	 -3.635705	 -2.884608	 -1.798984
C	 -4.965007	 -3.912759	 0.438721
H	 -3.103656	 -3.142512	 1.191060
H	 -2.923884	 -4.424571	 0.026566
C	 -5.173388	 -4.961141	 1.531029
H	 -5.542660	 -3.022626	 0.678446
H	 -5.361519	 -4.288668	 -0.502213
H	 -4.816329	 -4.602169	 2.492211
H	 -6.224022	 -5.211435	 1.641286
H	 -4.637546	 -5.878148	 1.302261

14 10 7 4 F

14 10 13 16 F

8 4 3 2 F

10 13 16 20 F

20 16 19 22 F

4 3 2 1 F

