%nprocshared=1
%mem=2GB
#HF/6-31G* nosymm scf=tight 

Mol

0 1
H	 -2.499100	 -0.730091	 -0.745082
O	 -2.347518	 -0.290803	 0.079804
C	 -1.184022	 0.487508	 -0.006784
C	 0.062599	 -0.378592	 0.031606
H	 -1.176523	 1.099369	 -0.904519
H	 -1.187323	 1.153111	 0.844927
O	 0.449604	 -0.634037	 -1.281693
H	 -0.145749	 -1.311874	 0.558441
H	 0.848725	 0.136765	 0.580239
C	 1.608145	 -1.396876	 -1.404176
H	 1.489283	 -2.377188	 -0.946477
H	 1.805183	 -1.524569	 -2.459531
H	 2.460267	 -0.901741	 -0.943177

1 2 3 5 F

10 7 4 8 F

4 7 10 13 F

