%nprocshared=1
%mem=2GB
#HF/6-31G* nosymm scf=tight 

Mol

0 1
H	 -1.836216	 1.387520	 -0.000064
C	 -1.301823	 0.443321	 -0.000031
O	 -0.003969	 0.658512	 0.000451
O	 -1.829879	 -0.616434	 -0.000857
C	 0.850537	 -0.484732	 0.000380
C	 1.096920	 -0.867444	 1.443691
H	 1.769448	 -0.233047	 -0.511064
H	 0.368309	 -1.280907	 -0.549944
H	 1.572997	 -0.055411	 1.981266
H	 1.745502	 -1.736101	 1.488513
H	 0.165156	 -1.108374	 1.942346

5 3 2 4 F

