%nprocshared=1
%mem=2GB
#HF/6-31G* nosymm scf=tight 

Mol

0 1
O	 0.391030	 1.298905	 0.000133
C	 0.503002	 0.111612	 0.000005
C	 -0.702327	 -0.811998	 -0.000075
C	 1.863306	 -0.554493	 0.000030
C	 -0.851489	 -1.621296	 1.282477
H	 -1.587924	 -0.205241	 -0.179895
H	 -0.619940	 -1.468436	 -0.864405
H	 -0.958674	 -0.970564	 2.141708
H	 -1.726101	 -2.260924	 1.226036
H	 0.017891	 -2.244959	 1.451129
H	 1.974395	 -1.189404	 -0.874166
H	 2.638695	 0.198920	 -0.000196
H	 1.974487	 -1.188655	 0.874727
