%nprocshared=1
%mem=2GB
#HF/6-31G* nosymm scf=tight 

Mol

0 1
O	 -0.932617	 -0.451448	 0.247570
C	 -0.451170	 -1.129930	 1.097049
C	 0.801727	 -1.959116	 0.945507
O	 -0.964278	 -1.250704	 2.313495
C	 1.124911	 -2.785238	 2.184071
H	 1.613075	 -1.280220	 0.700432
H	 0.669725	 -2.590969	 0.072237
H	 1.272053	 -2.149836	 3.048928
H	 2.030738	 -3.360307	 2.024106
H	 0.320287	 -3.472711	 2.414906
C	 -2.153452	 -0.522340	 2.601162
C	 -1.791154	 0.947543	 2.623408
H	 -2.546832	 -0.851513	 3.553256
H	 -2.892773	 -0.740486	 1.842606
H	 -1.045885	 1.148627	 3.384523
H	 -2.672709	 1.542066	 2.840325
H	 -1.393758	 1.260386	 1.664522

2 4 11 13 F

11 4 2 3 F

