%nprocshared=1
%mem=2GB
#HF/6-31G* nosymm scf=tight 

Mol

0 1
H	 1.376120	 -2.765575	 -1.403261
C	 1.284507	 -1.697740	 -1.225579
C	 0.191595	 -1.422111	 -0.197624
H	 1.044397	 -1.211000	 -2.164298
H	 2.254382	 -1.335979	 -0.901531
N	 -0.000257	 -0.000071	 0.054619
H	 -0.736720	 -1.829862	 -0.577556
H	 0.403314	 -1.962310	 0.729763
C	 -1.363055	 0.315058	 0.462241
C	 0.995221	 0.543191	 0.969248
C	 -2.412078	 -0.285320	 -0.468531
H	 -1.482241	 1.391144	 0.451970
H	 -1.549931	 -0.001174	 1.492681
C	 1.270339	 2.024739	 0.731407
H	 1.922207	 0.002796	 0.824940
H	 0.706179	 0.377235	 2.011218
H	 -2.262839	 0.075384	 -1.480151
H	 -2.369300	 -1.368867	 -0.491760
H	 -3.410332	 -0.003975	 -0.144961
H	 1.614173	 2.181457	 -0.284886
H	 0.387284	 2.636350	 0.882065
H	 2.036137	 2.381745	 1.414360
