%nprocshared=1
%mem=2GB
#HF/6-31G* nosymm scf=tight 

Mol

0 1
H	 -3.161837	 0.500524	 -0.000234
C	 -2.367097	 -0.232926	 -0.000000
O	 -1.158440	 0.455814	 -0.000122
H	 -2.468853	 -0.861886	 -0.882833
H	 -2.468942	 -0.861421	 0.883154
C	 -1.058687	 1.440634	 0.983775
C	 0.300233	 2.109559	 0.871797
H	 -1.182068	 0.997128	 1.972703
H	 -1.854304	 2.176601	 0.860266
C	 0.757642	 2.264535	 -0.577907
H	 0.246553	 3.080847	 1.353855
H	 1.020744	 1.521295	 1.431717
H	 0.061709	 2.871391	 -1.150469
H	 1.729509	 2.743905	 -0.628140
H	 0.840743	 1.300689	 -1.072373

6 3 2 4 F

8 6 3 2 F

