%nprocshared=1
%mem=2GB
#HF/6-31G* nosymm scf=tight opt=ModRedundant

Mol

0 1
H	 2.085000	 -0.899000	 1.171000
C	 2.071000	 -0.225000	 0.306000
C	 0.813000	 0.588000	 0.145000
O	 3.006000	 -0.176000	 -0.427000
C	 -0.437000	 -0.299000	 0.075000
H	 0.914000	 1.199000	 -0.744000
H	 0.735000	 1.253000	 1.005000
C	 -1.730000	 0.510000	 -0.033000
H	 -0.356000	 -0.966000	 -0.781000
H	 -0.483000	 -0.935000	 0.957000
C	 -2.976000	 -0.370000	 -0.112000
H	 -1.681000	 1.149000	 -0.911000
H	 -1.810000	 1.175000	 0.825000
H	 -2.941000	 -1.023000	 -0.980000
H	 -3.876000	 0.231000	 -0.187000
H	 -3.070000	 -0.998000	 0.770000
