%nprocshared=1
%mem=2GB
#HF/6-31G* nosymm scf=tight 

Mol

0 1
H	 2.329232	 -3.093599	 1.431771
C	 1.831583	 -3.169228	 0.470326
C	 0.602675	 -2.262812	 0.414130
H	 2.553018	 -2.900317	 -0.296124
H	 1.562187	 -4.210808	 0.319388
C	 -0.127859	 -2.340084	 -0.922563
H	 0.889402	 -1.231093	 0.592265
H	 -0.083231	 -2.536423	 1.214169
N	 -1.268658	 -1.446027	 -0.948991
H	 0.549020	 -2.041892	 -1.718728
H	 -0.407680	 -3.378866	 -1.127524
C	 -1.217365	 -0.386708	 0.039277
H	 -1.355622	 -1.044301	 -1.863373
C	 -2.452633	 0.504241	 -0.042481
H	 -1.172857	 -0.848333	 1.022069
H	 -0.315698	 0.227728	 -0.054795
C	 -3.758029	 -0.289423	 -0.010781
H	 -2.394220	 1.093569	 -0.952170
H	 -2.440793	 1.210787	 0.785871
H	 -3.816659	 -0.981993	 -0.845726
H	 -4.617837	 0.370165	 -0.069296
H	 -3.847478	 -0.867502	 0.904682

15 12 14 18 F

