%nprocshared=1
%mem=2GB
#HF/6-31G* nosymm scf=tight 

Mol

0 1
H	 2.257630	 1.834031	 -1.153331
N	 1.449140	 1.245334	 -1.210713
C	 1.267428	 0.496480	 0.024474
H	 1.599519	 0.621359	 -1.980749
C	 -0.016086	 -0.325158	 -0.029487
H	 1.200461	 1.212940	 0.837637
H	 2.109120	 -0.161270	 0.255341
C	 -1.282277	 0.529072	 0.046735
H	 -0.012495	 -0.908639	 -0.945788
H	 -0.015903	 -1.041248	 0.791956
C	 -1.009236	 2.017217	 -0.169084
H	 -1.754572	 0.387540	 1.016731
H	 -1.999653	 0.183879	 -0.694999
H	 -0.321763	 2.401363	 0.578936
H	 -1.924151	 2.598316	 -0.107643
H	 -0.567990	 2.196998	 -1.145404

6 3 5 9 F

1 2 3 6 F

