%nprocshared=1
%mem=2GB
#HF/6-31G* nosymm scf=tight 

Mol

0 1
O	 -2.439739	 -0.935931	 -0.423848
C	 -1.921153	 0.064240	 -0.045697
C	 -2.624470	 1.379923	 0.150949
O	 -0.632575	 0.154573	 0.251549
H	 -2.168117	 2.136577	 -0.476876
H	 -3.669540	 1.273223	 -0.098610
H	 -2.519365	 1.700893	 1.180846
C	 0.160891	 -1.019931	 0.106212
C	 1.589627	 -0.672828	 0.480843
H	 0.089836	 -1.367806	 -0.916050
H	 -0.238459	 -1.792301	 0.749618
C	 2.246377	 0.346236	 -0.452210
H	 2.163194	 -1.597435	 0.473358
H	 1.604769	 -0.303424	 1.502885
C	 1.571171	 0.407470	 -1.821644
H	 2.213422	 1.330064	 0.011574
H	 3.295275	 0.096906	 -0.574709
H	 2.055219	 1.135821	 -2.464478
H	 0.525317	 0.687875	 -1.733107
H	 1.613511	 -0.555383	 -2.322842

2 4 8 10 F

12 9 8 10 F

1 2 4 8 F

