%nprocshared=1
%mem=2GB
#HF/6-31G* nosymm scf=tight 

Mol

0 1
H	 -2.646374	 -0.642757	 1.268656
C	 -2.083525	 -0.384536	 0.393091
O	 -0.807605	 -0.127164	 0.768327
F	 -2.118945	 -1.383102	 -0.486752
F	 -2.621877	 0.670592	 -0.209486
C	 -0.234838	 1.055771	 0.337872
C	 -1.202892	 2.175367	 0.697782
Cl	 0.053820	 1.018272	 -1.409264
H	 0.706367	 1.254326	 0.820035
F	 -2.293972	 2.092256	 -0.033502
F	 -0.626504	 3.333021	 0.442728
F	 -1.540317	 2.149646	 1.964059

10 7 6 9 F

9 6 3 2 F

