%nprocshared=1
%mem=2GB
#HF/6-31G* nosymm scf=tight 

Mol

0 1
H	 0.921259	 -2.666073	 0.449220
C	 0.698240	 -2.082789	 1.350799
C	 -0.562264	 -1.259426	 1.286469
O	 1.428437	 -2.128917	 2.287183
C	 -0.558097	 -0.297372	 0.091132
H	 -0.667412	 -0.725225	 2.223514
H	 -1.402966	 -1.946059	 1.193810
C	 -1.850991	 0.512573	 -0.019058
H	 0.286826	 0.381537	 0.180356
H	 -0.406540	 -0.859580	 -0.828548
C	 -3.096943	 -0.368295	 -0.099594
H	 -1.800724	 1.150330	 -0.898172
H	 -1.931651	 1.177355	 0.838044
H	 -3.060452	 -1.020287	 -0.967456
H	 -3.996858	 0.233488	 -0.175704
H	 -3.191959	 -0.995686	 0.782074

6 3 5 9 F

4 2 3 6 F

