%nprocshared=1
%mem=2GB
#HF/6-31G* nosymm scf=tight 

Mol

0 1
H	 -3.489899	 1.228218	 -1.029938
O	 -3.452007	 0.283848	 -0.965577
C	 -3.181085	 -0.079926	 0.364119
C	 -1.765924	 0.277073	 0.805136
H	 -3.327791	 -1.152017	 0.410903
H	 -3.905698	 0.375695	 1.036898
C	 -0.709015	 0.023533	 -0.270586
H	 -1.741491	 1.325291	 1.104477
H	 -1.530459	 -0.298529	 1.698702
C	 -0.511199	 -1.461920	 -0.579578
H	 0.233169	 0.460871	 0.045222
H	 -0.997817	 0.546021	 -1.181077
C	 -1.832817	 -2.204126	 -0.795315
H	 0.117649	 -1.558995	 -1.461364
H	 0.034224	 -1.932312	 0.237643
C	 -2.714752	 -2.320093	 0.453243
H	 -1.626482	 -3.200863	 -1.182142
H	 -2.397925	 -1.690119	 -1.570083
C	 -4.138936	 -2.808847	 0.182642
H	 -2.766433	 -1.344210	 0.929973
H	 -2.235917	 -2.982733	 1.171455
H	 -4.638668	 -2.171885	 -0.542400
H	 -4.729887	 -2.797725	 1.093405
H	 -4.154425	 -3.823259	 -0.201927

20 16 13 17 F

17 13 10 7 F

13 10 7 11 F

11 7 4 3 F

1 2 3 5 F

