%nprocshared=1
%mem=2GB
#HF/6-31G* nosymm scf=tight 

Mol

0 1
H	 3.083879	 -1.346558	 0.395444
O	 2.172668	 -1.603300	 0.415122
C	 1.365383	 -0.540424	 0.207814
C	 1.750324	 0.546643	 -0.566401
C	 0.114407	 -0.560065	 0.799511
H	 2.724305	 0.559939	 -1.025989
C	 0.884947	 1.612342	 -0.748278
H	 -0.184176	 -1.399118	 1.397770
C	 -0.745905	 0.510875	 0.612411
H	 1.193994	 2.448014	 -1.349544
C	 -0.367144	 1.601126	 -0.160677
C	 -2.091337	 0.496229	 1.245237
H	 -1.040918	 2.427836	 -0.300624
O	 -2.575244	 -0.450131	 1.778887
H	 -2.636228	 1.443571	 1.191521

11 9 12 14 F

