%nprocshared=1
%mem=2GB
#HF/6-31G* nosymm scf=tight 

Mol

0 1
O	 0.391030	 1.298905	 0.000133
C	 0.503002	 0.111612	 0.000005
C	 -0.702327	 -0.811998	 -0.000075
C	 1.863306	 -0.554493	 0.000030
C	 -1.694848	 -0.520682	 1.118937
H	 -1.182900	 -0.733737	 -0.973572
H	 -0.338405	 -1.835924	 0.062393
H	 -2.077672	 0.489846	 1.044779
H	 -2.532383	 -1.208697	 1.069679
H	 -1.225693	 -0.622114	 2.089929
H	 1.974395	 -1.189404	 -0.874166
H	 2.638695	 0.198920	 -0.000196
H	 1.974487	 -1.188655	 0.874727
