%nprocshared=1
%mem=2GB
#HF/6-31G* nosymm scf=tight 

Mol

0 1
H	 -2.258317	 -0.920211	 0.781428
O	 -2.347518	 -0.290803	 0.079804
C	 -1.184022	 0.487508	 -0.006784
C	 0.062599	 -0.378592	 0.031606
H	 -1.176523	 1.099369	 -0.904519
H	 -1.187323	 1.153111	 0.844927
O	 -0.043959	 -1.331029	 -0.978982
H	 0.152937	 -0.862108	 1.006301
H	 0.944499	 0.244194	 -0.106143
C	 -1.343335	 -1.554277	 -1.427227
H	 -1.782282	 -0.648723	 -1.841868
H	 -1.296953	 -2.307388	 -2.201550
H	 -1.984431	 -1.912251	 -0.624331

8 4 3 5 F

1 2 3 5 F

4 7 10 13 F

