%nprocshared=1
%mem=2GB
#HF/6-31G* nosymm scf=tight 

Mol

0 1
H	 5.268524	 0.192471	 1.070992
C	 4.673736	 -0.214914	 0.259335
C	 3.185378	 -0.203514	 0.605509
H	 4.871837	 0.380453	 -0.627026
H	 5.025590	 -1.224632	 0.065769
C	 2.317601	 -0.778379	 -0.516234
H	 2.874655	 0.814325	 0.817774
H	 3.023650	 -0.778480	 1.515976
C	 2.203377	 0.135862	 -1.736227
H	 2.716664	 -1.736430	 -0.830130
H	 1.316753	 -0.962521	 -0.132259
C	 3.477861	 0.243313	 -2.560477
H	 1.431817	 -0.240274	 -2.406293
H	 1.879743	 1.132904	 -1.445806
C	 3.587397	 1.401859	 -3.536431
O	 4.356011	 -0.560212	 -2.462471
C	 2.523611	 1.379540	 -4.644142
H	 4.579631	 1.358708	 -3.969242
H	 3.506878	 2.332928	 -2.978478
C	 2.722677	 2.502793	 -5.663596
H	 2.558498	 0.419835	 -5.155381
H	 1.530657	 1.465205	 -4.210351
C	 1.670054	 2.491176	 -6.771185
H	 3.712872	 2.415839	 -6.104068
H	 2.698401	 3.461865	 -5.150774
H	 1.692178	 1.556040	 -7.323233
H	 0.670005	 2.611430	 -6.364302
H	 1.837931	 3.296782	 -7.478783

12 15 17 21 F

16 12 15 17 F

