%nprocshared=1
%mem=2GB
#HF/6-31G* nosymm scf=tight 

Mol

0 1
H	 -9.750637	 2.417578	 4.563743
C	 -8.824825	 2.211179	 4.012476
C	 -9.017953	 1.785404	 2.579288
O	 -7.771353	 2.328045	 4.549401
C	 -8.161754	 0.567049	 2.206741
H	 -10.072785	 1.595622	 2.417976
H	 -8.731047	 2.629573	 1.953414
C	 -6.659535	 0.860545	 2.184467
H	 -8.363768	 -0.226339	 2.920191
H	 -8.476190	 0.187885	 1.235596
C	 -6.253274	 1.803461	 1.050150
H	 -6.115147	 -0.076791	 2.090184
H	 -6.353557	 1.291581	 3.135848
C	 -7.144331	 3.045428	 0.963640
H	 -5.216547	 2.098262	 1.191650
H	 -6.292799	 1.266458	 0.103339
C	 -8.476090	 2.930578	 1.714174
H	 -7.340708	 3.275648	 -0.082366
H	 -6.595566	 3.895780	 1.362978
C	 -9.441535	 1.892099	 1.140506
H	 -8.962502	 3.902772	 1.700334
H	 -8.281521	 2.704290	 2.760528
H	 -9.641833	 2.084110	 0.089658
H	 -9.050397	 0.883621	 1.223924
H	 -10.390864	 1.916855	 1.666962

6 3 5 8 F

6 3 2 4 F

3 5 8 12 F

12 8 11 14 F

20 17 14 18 F

