%nprocshared=1
%mem=2GB
#HF/6-31G* nosymm scf=tight 

Mol

0 1
H	 2.372780	 -0.771305	 -0.519094
C	 1.640874	 0.013007	 -0.625028
O	 0.464886	 -0.454746	 -0.000158
H	 1.472281	 0.205573	 -1.677891
H	 2.006933	 0.911812	 -0.143143
C	 -0.590998	 0.343045	 0.000118
O	 -1.699443	 -0.054298	 0.000227
H	 -0.340329	 1.404368	 0.000207
