%nprocshared=1
%mem=2GB
#HF/6-31G* nosymm scf=tight 

Mol

0 1
O	 -2.042549	 -1.228399	 -0.269030
C	 -1.653912	 -0.146171	 0.050137
C	 -0.332303	 0.024011	 0.778412
C	 -2.438579	 1.106236	 -0.272369
C	 0.845713	 -0.001731	 -0.208243
H	 -0.323783	 0.953829	 1.340327
H	 -0.235459	 -0.796807	 1.480410
C	 2.200309	 0.136118	 0.488247
H	 0.733710	 0.800019	 -0.936072
H	 0.811185	 -0.933796	 -0.764304
C	 2.191303	 1.189392	 1.595379
H	 2.491874	 -0.825280	 0.905534
H	 2.957234	 0.392605	 -0.249212
H	 1.466995	 0.942596	 2.366431
H	 1.934646	 2.168636	 1.202121
H	 3.164701	 1.267491	 2.069112
H	 -3.277823	 0.863061	 -0.908988
H	 -1.806773	 1.843019	 -0.759671
H	 -2.802853	 1.554979	 0.648059

9 5 3 2 F

5 3 2 4 F

