%nprocshared=1
%mem=2GB
#HF/6-31G* nosymm scf=tight 

Mol

0 1
H	 -1.762381	 2.045561	 0.861715
C	 -1.944391	 1.063688	 1.281410
C	 -0.656213	 0.252355	 1.352799
H	 -2.679049	 0.571862	 0.655577
H	 -2.367341	 1.188146	 2.272822
C	 -0.000005	 0.033229	 -0.000001
H	 -0.839004	 -0.723574	 1.798384
H	 0.069645	 0.737170	 2.002784
C	 1.290528	 -0.768786	 0.000276
O	 -0.471852	 0.466626	 -1.006337
C	 2.545731	 0.095645	 -0.000061
H	 1.275672	 -1.427874	 -0.865626
H	 1.275566	 -1.427086	 0.866768
H	 2.577157	 0.734767	 -0.874036
H	 3.433520	 -0.528139	 0.000137
H	 2.577172	 0.735117	 0.873581
