%nprocshared=1
%mem=2GB
#HF/6-31G* nosymm scf=tight 

Mol

0 1
H	 -2.432250	 1.629905	 2.167877
C	 -2.024577	 0.623687	 2.241835
O	 -0.740590	 0.554488	 1.710868
H	 -1.961274	 0.347493	 3.285315
H	 -2.704289	 -0.061867	 1.737418
C	 -0.664241	 0.880051	 0.359043
C	 0.782885	 0.876356	 -0.074569
H	 -1.218786	 0.153882	 -0.236653
H	 -1.091816	 1.863177	 0.172908
O	 1.392611	 -0.295398	 0.366430
H	 0.832532	 0.954168	 -1.158768
H	 1.286054	 1.746740	 0.348451
C	 2.706965	 -0.449871	 -0.062409
H	 2.756559	 -0.644779	 -1.131878
H	 3.305899	 0.433456	 0.155466
H	 3.125548	 -1.294566	 0.467107

3 6 7 11 F

2 3 6 7 F

