%nprocshared=1
%mem=2GB
#HF/6-31G* nosymm scf=tight 

Mol

0 1
H	 2.071335	 -3.418973	 1.556855
C	 1.680119	 -3.360248	 0.546285
C	 0.454771	 -2.449505	 0.482772
H	 2.476465	 -2.992035	 -0.094403
H	 1.439391	 -4.370238	 0.226572
C	 -0.127859	 -2.340084	 -0.922563
H	 0.709928	 -1.453078	 0.829784
H	 -0.309790	 -2.827119	 1.159710
N	 -1.268658	 -1.446027	 -0.948991
H	 0.627056	 -1.938612	 -1.593300
H	 -0.373207	 -3.339867	 -1.296215
C	 -1.217365	 -0.386708	 0.039277
H	 -1.355622	 -1.044301	 -1.863373
C	 -2.452633	 0.504241	 -0.042481
H	 -1.172857	 -0.848333	 1.022069
H	 -0.315698	 0.227728	 -0.054795
C	 -3.758029	 -0.289423	 -0.010781
H	 -2.394220	 1.093569	 -0.952170
H	 -2.440793	 1.210787	 0.785871
H	 -3.816659	 -0.981993	 -0.845726
H	 -4.617837	 0.370165	 -0.069296
H	 -3.847478	 -0.867502	 0.904682

15 12 14 18 F

