%nprocshared=1
%mem=2GB
#HF/6-31G* nosymm scf=tight 

Mol

0 1
O	 0.117195	 1.196987	 -0.382630
C	 0.028650	 0.075053	 -0.000277
C	 -1.233602	 -0.752807	 0.000328
O	 1.054134	 -0.610361	 0.488078
C	 -2.501530	 0.091881	 0.000126
H	 -1.193807	 -1.406641	 -0.865785
H	 -1.193516	 -1.405779	 0.867015
H	 -2.545121	 0.729328	 -0.874513
H	 -3.377167	 -0.548497	 0.000561
H	 -2.544818	 0.730135	 0.874258
C	 2.303231	 0.054628	 0.544085
H	 2.620704	 0.350323	 -0.445455
H	 2.997728	 -0.656911	 0.962713
H	 2.239392	 0.930624	 1.173392

11 4 2 3 F

