%nprocshared=1
%mem=2GB
#HF/6-31G* nosymm scf=tight 

Mol

0 1
H	 -4.024653	 -0.515037	 -0.341046
C	 -2.960315	 -0.360632	 -0.352299
C	 -2.442230	 0.851982	 -0.781603
C	 -2.111189	 -1.374506	 0.062402
H	 -3.101873	 1.637455	 -1.102960
C	 -1.073594	 1.049769	 -0.795789
H	 -2.514619	 -2.313827	 0.394858
C	 -0.740830	 -1.178770	 0.049054
H	 -0.655019	 1.981558	 -1.124780
C	 -0.218455	 0.035414	 -0.380648
H	 -0.080036	 -1.960590	 0.369099
C	 1.247829	 0.299005	 -0.415103
O	 1.970282	 -0.730723	 0.000018
O	 1.731132	 1.325896	 -0.776727
C	 3.377318	 -0.566646	 -0.000065
H	 3.695437	 -0.028981	 -0.881264
H	 3.789299	 -1.563704	 0.000236
H	 3.695516	 -0.028316	 0.880770

10 12 13 15 F

13 12 10 6 F

