%nprocshared=24
%mem=2GB
#HF/6-31G* nosymm scf=tight 

Mol

0 1
H	 -2.311090	 0.456289	 3.047743
C	 -2.315327	 -0.085443	 2.121909
C	 -1.215541	 -0.172906	 1.409995
H	 -3.230555	 -0.546049	 1.800799
O	 -1.180634	 -0.819263	 0.215062
H	 -0.287083	 0.275020	 1.717441
C	 0.051604	 -1.018856	 -0.387932
C	 1.043764	 0.054862	 -0.001873
H	 -0.017620	 -1.041351	 -1.469781
H	 0.437898	 -1.966374	 -0.042284
F	 0.990529	 0.254188	 1.307035
F	 2.284001	 -0.290991	 -0.305236
F	 0.789209	 1.201364	 -0.597797

11 8 7 9 F

6 3 2 1 F

6 3 5 7 F

