%nprocshared=1
%mem=2GB
#HF/6-31G* nosymm scf=tight 

Mol

0 1
H	 -10.824817	 1.266966	 -0.890775
C	 -9.887470	 1.146048	 -0.333657
C	 -8.679243	 1.780925	 -0.973760
O	 -9.876103	 0.549416	 0.693792
C	 -7.460262	 0.848065	 -0.984332
H	 -8.948586	 2.096183	 -1.975147
H	 -8.442445	 2.673038	 -0.395212
C	 -6.892560	 0.569744	 0.409781
H	 -7.748778	 -0.089525	 -1.450130
H	 -6.684401	 1.274631	 -1.618240
C	 -6.253274	 1.803461	 1.050150
H	 -6.155023	 -0.227231	 0.341114
H	 -7.680129	 0.195300	 1.060985
C	 -7.144331	 3.045428	 0.963640
H	 -6.023671	 1.581712	 2.089304
H	 -5.301139	 2.009958	 0.563136
C	 -8.476090	 2.930578	 1.714174
H	 -7.340708	 3.275648	 -0.082366
H	 -6.595566	 3.895780	 1.362978
C	 -9.441535	 1.892099	 1.140506
H	 -8.962502	 3.902772	 1.700334
H	 -8.281521	 2.704290	 2.760528
H	 -9.641833	 2.084110	 0.089658
H	 -9.050397	 0.883621	 1.223924
H	 -10.390864	 1.916855	 1.666962

6 3 5 8 F

6 3 2 4 F

3 5 8 12 F

12 8 11 14 F

20 17 14 18 F

