%nprocshared=1
%mem=2GB
#HF/6-31G* nosymm scf=tight 

Mol

0 1
H	 -3.531075	 0.153676	 0.694648
O	 -3.109513	 -0.239161	 -0.057402
C	 -1.776244	 -0.071954	 -0.007364
C	 -1.152044	 0.600258	 1.039300
C	 -1.026943	 -0.600189	 -1.051194
H	 -1.740172	 1.006652	 1.844446
C	 0.219759	 0.741584	 1.037870
H	 -1.531461	 -1.114396	 -1.847011
C	 0.344161	 -0.450697	 -1.038431
H	 0.714528	 1.257851	 1.838976
C	 0.984182	 0.218375	 0.000000
H	 0.925288	 -0.859860	 -1.847096
C	 2.452467	 0.370529	 0.000000
O	 3.228994	 -0.533774	 0.000000
H	 2.809473	 1.405765	 0.000000

5 3 2 1 F

