%nprocshared=1
%mem=2GB
#HF/6-31G* nosymm scf=tight 

Mol

0 1
H	 1.722899	 -1.631256	 -1.021331
C	 0.857637	 -1.023404	 -1.230840
O	 0.464886	 -0.454746	 -0.000158
H	 0.072064	 -1.647641	 -1.639776
H	 1.124464	 -0.255520	 -1.947232
C	 -0.590998	 0.343045	 0.000118
O	 -1.699443	 -0.054298	 0.000227
H	 -0.340329	 1.404368	 0.000207
