%nprocshared=1
%mem=2GB
#HF/6-31G* nosymm scf=tight 

Mol

0 1
H	 7.425010	 -6.536786	 -3.265518
C	 7.118164	 -5.559273	 -2.906580
C	 7.729052	 -5.256232	 -1.539043
H	 7.428511	 -4.824084	 -3.643141
H	 6.032395	 -5.548161	 -2.864378
C	 7.310657	 -3.886501	 -0.999973
H	 8.810839	 -5.301271	 -1.611913
H	 7.428660	 -6.028062	 -0.832125
C	 5.808170	 -3.620376	 -1.094726
H	 7.620406	 -3.792833	 0.034882
H	 7.830913	 -3.111139	 -1.557817
C	 4.964761	 -4.436609	 -0.126394
H	 5.605933	 -2.573185	 -0.875042
H	 5.447822	 -3.782884	 -2.108095
C	 3.475324	 -4.538016	 -0.405696
O	 5.446035	 -4.965454	 0.830216
C	 3.142513	 -5.197708	 -1.752249
H	 3.077758	 -3.530724	 -0.373804
H	 3.010537	 -5.105855	 0.398180
C	 3.906992	 -6.506058	 -1.962969
H	 2.073565	 -5.394231	 -1.800676
H	 3.371148	 -4.517137	 -2.568350
C	 3.584233	 -7.172245	 -3.299729
H	 3.675183	 -7.191428	 -1.151430
H	 4.975620	 -6.311267	 -1.903941
H	 2.526789	 -7.408725	 -3.374670
H	 3.837980	 -6.523738	 -4.133494
H	 4.139105	 -8.097216	 -3.419829

10 6 3 2 F

12 15 17 21 F

