%nprocshared=1
%mem=2GB
#HF/6-31G* nosymm scf=tight 
prop=(read,field)

Mol

0 1
O	 -2.439946	 -0.935980	 -0.423860
C	 -1.921360	 0.064191	 -0.045709
C	 -2.624677	 1.379874	 0.150937
O	 -0.632782	 0.154524	 0.251537
H	 -2.168324	 2.136528	 -0.476888
H	 -3.669747	 1.273174	 -0.098622
H	 -2.519572	 1.700844	 1.180834
C	 0.160684	 -1.019980	 0.106200
C	 1.589420	 -0.672877	 0.480831
H	 0.089629	 -1.367855	 -0.916062
H	 -0.238666	 -1.792350	 0.749606
C	 2.246170	 0.346187	 -0.452222
H	 2.162987	 -1.597484	 0.473346
H	 1.604562	 -0.303473	 1.502873
C	 3.691529	 0.652058	 -0.061862
H	 2.219372	 -0.032360	 -1.472067
H	 1.666259	 1.263268	 -0.447261
H	 4.134298	 1.377164	 -0.737295
H	 4.305301	 -0.243917	 -0.089981
H	 3.748059	 1.059513	 0.943555

@grid.dat /N
