%nprocshared=1
%mem=2GB
#HF/6-31G* nosymm scf=tight 

Mol

0 1
H	 2.451652	 -2.178703	 -0.543297
O	 2.773837	 -1.297590	 -0.410870
C	 1.759943	 -0.431505	 -0.213148
C	 2.091892	 0.903503	 -0.004572
C	 0.435585	 -0.824197	 -0.212221
H	 3.128404	 1.183633	 -0.009892
C	 1.098842	 1.838143	 0.203668
H	 0.151270	 -1.845815	 -0.370297
C	 -0.536158	 0.140425	 0.000000
H	 1.364064	 2.866660	 0.363878
C	 -0.239507	 1.468500	 0.209198
N	 -1.935604	 -0.280333	 0.000000
H	 -1.021001	 2.181958	 0.369348
O	 -2.161694	 -1.452901	 0.000000
O	 -2.770341	 0.571417	 0.000000

4 3 2 1 F

