%nprocshared=1
%mem=2GB
#HF/6-31G* nosymm scf=tight 

Mol

0 1
O	 2.855320	 1.368095	 0.109938
C	 2.820716	 0.199642	 0.347168
C	 1.524338	 -0.590449	 0.337185
C	 4.079597	 -0.576255	 0.676346
C	 0.291004	 0.242674	 0.000989
H	 1.639452	 -1.410588	 -0.370281
H	 1.415097	 -1.063901	 1.312024
C	 -0.994322	 -0.586602	 0.000262
H	 0.430251	 0.708771	 -0.969317
H	 0.205456	 1.055724	 0.714978
C	 -2.259874	 0.272531	 0.000494
H	 -1.004862	 -1.240012	 -0.870939
H	 -1.005220	 -1.241071	 0.870675
C	 -3.549786	 -0.549746	 -0.000374
H	 -2.250389	 0.926680	 -0.869574
H	 -2.250838	 0.925513	 0.871430
C	 -4.809590	 0.315458	 -0.000369
H	 -3.560515	 -1.202009	 -0.871156
H	 -3.561123	 -1.202955	 0.869711
H	 -4.844746	 0.956611	 -0.876632
H	 -5.706986	 -0.295590	 -0.001609
H	 -4.845960	 0.954827	 0.877144
H	 4.225362	 -1.382338	 -0.036816
H	 4.933495	 0.086377	 0.651629
H	 3.999564	 -1.027748	 1.660918

15 11 8 12 F

15 11 14 18 F

1 2 3 6 F

9 5 3 6 F

