%nprocshared=1
%mem=2GB
#HF/6-31G* nosymm scf=tight opt=ModRedundant

Mol

0 1
H	 -2.633000	 -0.492000	 -0.097000
N	 -1.886000	 0.175000	 -0.086000
C	 -0.598000	 -0.492000	 0.027000
H	 -2.043000	 0.772000	 0.705000
C	 0.541000	 0.518000	 -0.059000
H	 -0.516000	 -1.194000	 -0.797000
H	 -0.494000	 -1.075000	 0.946000
C	 1.921000	 -0.134000	 0.024000
H	 0.441000	 1.070000	 -0.989000
H	 0.435000	 1.244000	 0.745000
H	 2.070000	 -0.843000	 -0.785000
H	 2.709000	 0.609000	 -0.040000
H	 2.049000	 -0.670000	 0.960000
