%nprocshared=1
%mem=2GB
#HF/6-31G* nosymm scf=tight 

Mol

0 1
O	 -0.644987	 -1.652990	 1.664992
C	 -1.514987	 -1.440192	 0.882411
C	 -2.775474	 -2.260464	 0.784449
O	 -1.481751	 -0.454642	 0.000584
H	 -3.283566	 -2.233162	 1.740984
H	 -3.433286	 -1.897333	 0.008654
H	 -2.505502	 -3.290827	 0.586090
C	 -0.334255	 0.388708	 0.000906
C	 0.891947	 -0.504646	 0.000751
H	 -0.365390	 1.025305	 -0.873475
H	 -0.365484	 1.024911	 0.875569
C	 0.838286	 -1.556101	 -1.109219
H	 0.972990	 -0.989855	 0.969484
H	 1.777328	 0.114301	 -0.115286
C	 -0.190885	 -1.227300	 -2.192281
H	 1.821234	 -1.652218	 -1.567106
H	 0.605993	 -2.528439	 -0.678311
C	 -0.243495	 -2.276844	 -3.301586
H	 0.039960	 -0.256100	 -2.624201
H	 -1.174118	 -1.133170	 -1.736800
H	 0.717551	 -2.370047	 -3.799298
H	 -0.981382	 -2.016107	 -4.053766
H	 -0.505975	 -3.253609	 -2.905300

13 9 8 10 F

2 4 8 10 F

19 15 12 16 F

1 2 4 8 F

