%nprocshared=1
%mem=2GB
#HF/6-31G* nosymm scf=tight 

Mol

0 1
H	 1.137726	 1.699535	 2.446481
O	 2.043191	 1.440798	 2.537370
C	 2.121858	 0.050702	 2.725777
C	 1.826191	 -0.745245	 1.459373
H	 3.135099	 -0.145155	 3.052360
H	 1.456924	 -0.263126	 3.529614
C	 0.397314	 -0.576023	 0.937318
H	 2.533554	 -0.445344	 0.690567
H	 2.012445	 -1.797277	 1.668908
C	 0.115918	 -1.429151	 -0.302766
H	 0.223874	 0.470905	 0.704452
H	 -0.309328	 -0.843898	 1.722964
C	 0.579824	 -2.886769	 -0.200376
H	 -0.950587	 -1.405317	 -0.519203
H	 0.608521	 -0.970378	 -1.157500
C	 0.727785	 -3.417141	 1.228361
H	 -0.136855	 -3.511425	 -0.729518
H	 1.526011	 -3.000648	 -0.727253
C	 1.089510	 -4.903113	 1.278129
H	 -0.203924	 -3.256926	 1.769064
H	 1.489685	 -2.852392	 1.760217
C	 1.244105	 -5.433542	 2.703053
H	 0.324002	 -5.477389	 0.760738
H	 2.015148	 -5.066637	 0.730097
H	 0.323796	 -5.314109	 3.267847
H	 1.498359	 -6.488998	 2.704892
H	 2.028698	 -4.903778	 3.236090

14 10 7 4 F

10 7 4 8 F

8 4 3 2 F

10 13 16 20 F

20 16 19 22 F

4 3 2 1 F

