%nprocshared=1
%mem=2GB
#HF/6-31G* nosymm scf=tight 

Mol

0 1
O	 2.544561	 1.850230	 -0.436504
C	 1.838777	 1.723109	 -1.389639
C	 0.569680	 0.890692	 -1.352025
C	 2.167518	 2.390316	 -2.709457
C	 0.291004	 0.242674	 0.000989
H	 -0.258633	 1.532446	 -1.649411
H	 0.643551	 0.134968	 -2.132938
C	 -0.994322	 -0.586602	 0.000262
H	 0.231019	 1.016052	 0.760210
H	 1.134073	 -0.383189	 0.276087
C	 -2.259874	 0.272531	 0.000494
H	 -1.004862	 -1.240012	 -0.870939
H	 -1.005220	 -1.241071	 0.870675
C	 -3.413265	 -0.348856	 0.790165
H	 -2.578561	 0.443306	 -1.026294
H	 -2.028771	 1.252754	 0.413713
C	 -4.673944	 0.515060	 0.785567
H	 -3.645978	 -1.328238	 0.377274
H	 -3.096399	 -0.518645	 1.817115
H	 -5.035742	 0.675087	 -0.226185
H	 -5.473420	 0.048100	 1.352566
H	 -4.482589	 1.489999	 1.224909
H	 1.363265	 3.056339	 -3.008133
H	 3.085857	 2.952964	 -2.615040
H	 2.277291	 1.646185	 -3.492945

9 5 8 12 F

15 11 14 18 F

1 2 3 6 F

9 5 3 6 F

