%nprocshared=1
%mem=2GB
#HF/6-31G* nosymm scf=tight 

Mol

0 1
H	 -3.457960	 0.166880	 1.449720
O	 -3.367910	 -0.300316	 2.267454
C	 -3.043259	 -1.643282	 2.012310
C	 -1.609705	 -1.833855	 1.529264
H	 -3.184960	 -2.163733	 2.950780
H	 -3.740919	 -2.074362	 1.295219
C	 -1.155425	 -0.793482	 0.502559
H	 -0.948878	 -1.808123	 2.391825
H	 -1.527397	 -2.829329	 1.096108
C	 -1.880370	 -0.931093	 -0.839207
H	 -0.084299	 -0.888694	 0.347674
H	 -1.327192	 0.206812	 0.900362
C	 -3.401643	 -1.090396	 -0.735808
H	 -1.650410	 -0.067457	 -1.460574
H	 -1.478474	 -1.796112	 -1.362584
C	 -3.870415	 -2.398606	 -0.092909
H	 -3.793591	 -0.258486	 -0.154328
H	 -3.840908	 -0.998347	 -1.727982
C	 -5.388859	 -2.465225	 0.084084
H	 -3.391159	 -2.513230	 0.878320
H	 -3.549421	 -3.246616	 -0.693029
C	 -5.860016	 -3.772746	 0.719744
H	 -5.716903	 -1.627968	 0.696355
H	 -5.869720	 -2.341150	 -0.884040
H	 -5.421627	 -3.910373	 1.704172
H	 -6.939563	 -3.788632	 0.833583
H	 -5.579295	 -4.628245	 0.111731

14 10 7 4 F

14 10 13 16 F

10 7 4 8 F

10 13 16 20 F

20 16 19 22 F

4 3 2 1 F

