%nprocshared=1
%mem=2GB
#HF/6-31G* nosymm scf=tight 

Mol

0 1
H	 -0.226203	 -2.331405	 0.783199
N	 -0.372540	 -1.341850	 0.734817
C	 -1.488412	 -1.028681	 -0.140318
H	 0.465045	 -0.933709	 0.367418
C	 -1.115270	 -1.320730	 -1.578584
H	 -2.400080	 -1.578782	 0.096857
H	 -1.713787	 0.029540	 -0.050011
O	 -0.088814	 -0.446451	 -1.951562
H	 -0.782270	 -2.353526	 -1.678990
H	 -1.983607	 -1.177725	 -2.217939
C	 0.295968	 -0.548357	 -3.285402
H	 1.077210	 -1.293847	 -3.345427
H	 -0.534823	 -0.858547	 -3.916710
H	 0.680852	 0.397273	 -3.661511

8 5 3 6 F

6 3 2 4 F

11 8 5 3 F

