%nprocshared=1
%mem=2GB
#HF/6-31G* nosymm scf=tight 

Mol

0 1
O	 -0.389695	 0.092980	 2.453461
C	 -0.833093	 0.610524	 1.479901
C	 -1.689737	 1.847648	 1.474314
O	 -0.632575	 0.154573	 0.251549
H	 -2.647636	 1.627754	 1.017121
H	 -1.833848	 2.193421	 2.486988
H	 -1.213112	 2.620317	 0.882227
C	 0.160891	 -1.019931	 0.106212
C	 1.589627	 -0.672828	 0.480843
H	 0.089836	 -1.367806	 -0.916050
H	 -0.238459	 -1.792301	 0.749618
C	 2.642636	 -1.315070	 -0.424197
H	 1.745548	 -0.995326	 1.508275
H	 1.702311	 0.408132	 0.471615
C	 2.328901	 -1.133767	 -1.908684
H	 3.616279	 -0.881523	 -0.204752
H	 2.716174	 -2.373006	 -0.194585
H	 3.088899	 -1.598246	 -2.528923
H	 2.281578	 -0.081773	 -2.175790
H	 1.373486	 -1.582738	 -2.164976

16 12 9 8 F

2 4 8 10 F

1 2 4 8 F

