%nprocshared=1
%mem=2GB
#HF/6-31G* nosymm scf=tight 

Mol

0 1
H	 -3.457960	 0.166880	 1.449720
O	 -3.367910	 -0.300316	 2.267454
C	 -3.043259	 -1.643282	 2.012310
C	 -1.609705	 -1.833855	 1.529264
H	 -3.184960	 -2.163733	 2.950780
H	 -3.740919	 -2.074362	 1.295219
C	 -0.816151	 -2.870182	 2.328743
H	 -1.634287	 -2.121925	 0.481515
H	 -1.103426	 -0.871422	 1.581905
C	 -0.527268	 -2.416344	 3.762408
H	 0.120280	 -3.075021	 1.817368
H	 -1.370484	 -3.808432	 2.355989
C	 -1.733291	 -1.834628	 4.509038
H	 -0.123330	 -3.253757	 4.328464
H	 0.257070	 -1.662826	 3.735467
C	 -2.255019	 -0.506163	 3.954548
H	 -2.539683	 -2.564354	 4.476660
H	 -1.479706	 -1.711790	 5.560913
C	 -3.520491	 -0.019895	 4.664169
H	 -2.460959	 -0.617222	 2.890891
H	 -1.488952	 0.260952	 4.038085
C	 -4.039741	 1.309213	 4.116890
H	 -4.297516	 -0.775750	 4.572500
H	 -3.319375	 0.082350	 5.728586
H	 -4.281129	 1.230758	 3.060576
H	 -4.937694	 1.625921	 4.638436
H	 -3.298502	 2.095749	 4.227753

14 10 7 4 F

14 10 13 16 F

10 7 4 8 F

10 13 16 20 F

20 16 19 22 F

4 3 2 1 F

