%nprocshared=1
%mem=2GB
#HF/6-31G* nosymm scf=tight 

Mol

0 1
H	 1.594398	 -1.082076	 1.073132
C	 0.715974	 -1.190795	 0.451959
O	 0.000000	 0.000000	 0.521119
H	 1.030316	 -1.408462	 -0.567599
H	 0.128075	 -2.031376	 0.817318
C	 -1.165642	 0.000000	 -0.238270
H	 -1.228672	 0.883184	 -0.872070
H	 -2.003012	 0.000000	 0.445920
H	 -1.228672	 -0.883184	 -0.872070
