%nprocshared=1
%mem=2GB
#HF/6-31G* nosymm scf=tight 

Mol

0 1
H	 -0.944757	 -0.000069	 1.678017
O	 -0.042387	 -0.000390	 1.388199
C	 -0.001487	 0.000018	 -0.026623
C	 0.012656	 -1.441522	 -0.538877
C	 -1.211053	 0.760506	 -0.573663
C	 1.295650	 0.715149	 -0.387795
H	 0.086164	 -1.476570	 -1.621127
H	 -0.898397	 -1.962119	 -0.252755
H	 0.853946	 -1.981029	 -0.117948
H	 -1.188561	 0.813367	 -1.657540
H	 -2.138123	 0.269786	 -0.286144
H	 -1.229214	 1.770355	 -0.179009
H	 1.423559	 0.768609	 -1.464143
H	 2.143819	 0.189170	 0.035811
H	 1.290916	 1.723427	 0.010635
