%nprocshared=1
%mem=2GB
#HF/6-31G* nosymm scf=tight 

Mol

0 1
O	 -0.658941	 -0.929184	 1.393439
C	 -0.477547	 0.029429	 0.691400
C	 -1.503614	 1.146292	 0.647944
N	 0.623947	 0.147590	 -0.102813
H	 -1.894315	 1.288356	 -0.353681
H	 -2.311721	 0.867683	 1.307025
H	 -1.082103	 2.088426	 0.981551
C	 1.665360	 -0.855771	 0.000151
C	 1.001695	 1.364104	 -0.788121
H	 2.465253	 -0.618490	 -0.692587
H	 1.257730	 -1.821716	 -0.242189
H	 2.081488	 -0.891645	 1.004627
H	 1.509707	 1.108126	 -1.710313
H	 0.139785	 1.959129	 -1.045003
H	 1.677488	 1.973712	 -0.191049

8 4 2 3 F

