%nprocshared=1
%mem=2GB
#HF/6-31G* nosymm scf=tight 

Mol

0 1
H	 -3.161837	 0.500524	 -0.000234
C	 -2.367097	 -0.232926	 -0.000000
O	 -1.158440	 0.455814	 -0.000122
H	 -2.468853	 -0.861886	 -0.882833
H	 -2.468942	 -0.861421	 0.883154
C	 -0.338256	 0.176384	 1.093995
C	 0.938784	 0.988995	 0.969522
H	 -0.107264	 -0.889175	 1.127552
H	 -0.854641	 0.422518	 2.022796
C	 1.902104	 0.745179	 2.130319
H	 1.416028	 0.738004	 0.027236
H	 0.673951	 2.040530	 0.916269
H	 2.199152	 -0.298389	 2.186469
H	 2.803763	 1.337483	 2.016158
H	 1.451522	 1.012752	 3.082046

11 7 6 8 F

8 6 3 2 F

