%nprocshared=1
%mem=2GB
#HF/6-31G* nosymm scf=tight 

Mol

0 1
H	 -2.484668	 0.777003	 0.898422
O	 -1.611346	 0.473995	 1.099834
C	 -0.890939	 1.496808	 1.739303
C	 -1.340096	 1.740825	 3.175771
H	 0.143701	 1.178867	 1.728876
H	 -0.950756	 2.421018	 1.165685
C	 -1.480859	 0.464671	 4.009128
H	 -0.627645	 2.410215	 3.650846
H	 -2.295567	 2.262063	 3.148335
C	 -2.639851	 -0.421015	 3.543170
H	 -1.625949	 0.733279	 5.051800
H	 -0.552988	 -0.105241	 3.958174
C	 -2.708223	 -0.647977	 2.028523
H	 -2.580930	 -1.383106	 4.048892
H	 -3.574188	 0.033672	 3.865619
C	 -3.034785	 0.600176	 1.203932
H	 -1.748711	 -1.040417	 1.698153
H	 -3.441468	 -1.424009	 1.814133
C	 -4.465221	 1.099239	 1.418936
H	 -2.886717	 0.381315	 0.147388
H	 -2.342647	 1.402214	 1.448846
C	 -5.411106	 0.710962	 0.283063
H	 -4.847259	 0.703375	 2.357459
H	 -4.456195	 2.181939	 1.526468
H	 -5.467273	 -0.368187	 0.171231
H	 -6.416738	 1.077069	 0.465559
H	 -5.076338	 1.123259	 -0.664726

14 10 7 4 F

14 10 13 16 F

10 7 4 8 F

8 4 3 2 F

10 13 16 20 F

4 3 2 1 F

