%nprocshared=1
%mem=2GB
#HF/6-31G* nosymm scf=tight 

Mol

0 1
H	 -0.314752	 3.001425	 -0.790005
C	 0.411227	 2.338203	 -0.303388
C	 0.065331	 0.871482	 -0.349150
O	 1.385684	 2.789984	 0.204596
C	 -1.187494	 0.539161	 0.473938
H	 0.925191	 0.306539	 -0.007982
H	 -0.112309	 0.614764	 -1.392558
C	 -1.699681	 -0.883781	 0.247391
H	 -1.966730	 1.249547	 0.216732
H	 -0.976329	 0.690154	 1.530465
H	 -1.949702	 -1.044905	 -0.796666
H	 -2.591125	 -1.071590	 0.836774
H	 -0.958552	 -1.627551	 0.524741

6 3 5 9 F

