%nprocshared=1
%mem=2GB
#HF/6-31G* nosymm scf=tight opt=ModRedundant

Mol

0 1
H	 0.000000	 2.328000	 -0.103000
N	 0.000000	 1.351000	 -0.320000
C	 -1.200000	 0.714000	 0.195000
C	 1.200000	 0.714000	 0.195000
H	 -1.282000	 0.790000	 1.282000
H	 -2.072000	 1.189000	 -0.242000
C	 -1.167000	 -0.756000	 -0.192000
H	 2.072000	 1.189000	 -0.242000
H	 1.282000	 0.790000	 1.282000
C	 1.167000	 -0.757000	 -0.192000
H	 -2.001000	 -1.292000	 0.243000
H	 -1.220000	 -0.849000	 -1.275000
O	 -0.000000	 -1.369000	 0.286000
H	 2.001000	 -1.292000	 0.243000
H	 1.220000	 -0.850000	 -1.275000
