%nprocshared=1
%mem=2GB
#HF/6-31G* nosymm scf=tight 

Mol

0 1
O	 -0.682937	 1.318834	 -0.186099
C	 -0.860635	 0.152188	 -0.042321
C	 -2.173363	 -0.477127	 0.338347
O	 0.083258	 -0.765189	 -0.202595
H	 -2.477673	 -1.180929	 -0.427595
H	 -2.923125	 0.290956	 0.455536
H	 -2.058825	 -1.029004	 1.264191
C	 1.391937	 -0.334737	 -0.569838
C	 2.340436	 -0.365106	 0.614255
H	 1.332792	 0.653527	 -0.999928
H	 1.702810	 -1.033530	 -1.333085
H	 3.343135	 -0.106182	 0.288244
H	 2.035004	 0.345845	 1.371637
H	 2.370352	 -1.356271	 1.053700

8 4 2 1 F

