%nprocshared=1
%mem=2GB
#HF/6-31G* nosymm scf=tight 
prop=(read,field)

Mol

0 1
O	 -2.324964	 1.361766	 -0.277154
C	 -2.106102	 0.203195	 -0.092094
C	 -0.889388	 -0.466936	 -0.705965
C	 -3.002879	 -0.644362	 0.782442
C	 0.379295	 -0.143471	 0.099613
H	 -0.781693	 -0.090233	 -1.717301
H	 -1.031440	 -1.542595	 -0.758931
C	 1.631180	 -0.777373	 -0.511588
H	 0.482615	 0.934605	 0.149228
H	 0.262935	 -0.495598	 1.123436
C	 2.915834	 -0.544216	 0.291753
H	 1.766519	 -0.399000	 -1.523143
H	 1.471104	 -1.849446	 -0.605841
C	 3.373208	 0.914444	 0.347578
H	 3.708556	 -1.142423	 -0.150324
H	 2.780489	 -0.921050	 1.303566
H	 3.506359	 1.320108	 -0.651638
H	 4.322544	 0.999697	 0.867090
H	 2.660471	 1.545130	 0.868185
H	 -3.496735	 -1.399209	 0.176161
H	 -3.748092	 -0.023676	 1.260135
H	 -2.421471	 -1.168677	 1.535345

@grid.dat /N
