%nprocshared=1
%mem=2GB
#HF/6-31G* nosymm scf=tight 

Mol

0 1
O	 -0.682937	 1.318834	 -0.186099
C	 -0.860635	 0.152188	 -0.042321
C	 -2.173363	 -0.477127	 0.338347
O	 0.083258	 -0.765189	 -0.202595
H	 -2.477673	 -1.180929	 -0.427595
H	 -2.923125	 0.290956	 0.455536
H	 -2.058825	 -1.029004	 1.264191
C	 0.871714	 -1.131578	 0.927402
C	 1.746242	 0.018171	 1.392081
H	 1.463587	 -1.999870	 0.680629
H	 0.150263	 -1.400359	 1.685534
H	 2.275974	 -0.265598	 2.296287
H	 2.477531	 0.276545	 0.636550
H	 1.142580	 0.892295	 1.610974

10 8 4 2 F

