%nprocshared=1
%mem=2GB
#HF/6-31G* nosymm scf=tight 

Mol

0 1
H	 -0.275837	 -1.184254	 -2.363640
C	 -0.691247	 -0.211439	 -2.118229
O	 -0.774054	 0.001095	 -0.743181
H	 -1.703514	 -0.169680	 -2.497572
H	 -0.107332	 0.553124	 -2.621896
C	 0.406953	 0.000033	 0.038965
C	 1.527284	 -0.003667	 -0.998752
C	 0.498933	 1.262172	 0.902524
C	 0.494271	 -1.259566	 0.906664
H	 1.452513	 0.873252	 -1.631882
H	 1.448863	 -0.881882	 -1.629595
H	 2.502020	 -0.005104	 -0.521731
H	 0.364280	 2.147110	 0.289513
H	 1.472180	 1.321775	 1.378800
H	 -0.247853	 1.275162	 1.689097
H	 0.356778	 -2.146106	 0.296587
H	 1.467182	 -1.320941	 1.383330
H	 -0.252763	 -1.267328	 1.693119

6 3 2 5 F

