%nprocshared=1
%mem=2GB
#HF/6-31G* nosymm scf=tight 

Mol

0 1
H	 -2.273092	 1.173159	 0.000295
O	 -1.438904	 1.618192	 0.000114
C	 -0.409536	 0.736003	 0.000030
C	 -0.554884	 -0.389061	 0.796462
C	 0.743089	 0.935351	 -0.756710
H	 -1.459817	 -0.503651	 1.363873
C	 0.453314	 -1.332718	 0.847042
C	 1.740470	 -0.029692	 -0.686609
C	 0.899818	 2.163611	 -1.624938
H	 0.334378	 -2.203410	 1.466917
C	 1.609569	 -1.157706	 0.103792
H	 2.637187	 0.109617	 -1.265260
H	 0.862376	 3.081443	 -1.041735
H	 1.853221	 2.150512	 -2.137605
H	 0.126536	 2.223628	 -2.388109
H	 2.397806	 -1.887564	 0.138297
