%nprocshared=1
%mem=2GB
#HF/6-31G* nosymm scf=tight 

Mol

0 1
H	 -3.042581	 -0.665861	 0.004336
O	 -2.245037	 -1.176175	 0.000806
C	 -1.162163	 -0.365336	 0.001020
C	 0.121454	 -0.839927	 0.202072
C	 -1.384774	 0.990139	 -0.208651
H	 0.295254	 -1.889894	 0.367405
C	 1.180950	 0.056319	 0.190966
H	 -2.395038	 1.324574	 -0.359105
C	 -0.327437	 1.882889	 -0.220846
H	 2.180207	 -0.308976	 0.349346
C	 0.966729	 1.403889	 -0.016727
C	 -0.565614	 3.353602	 -0.472591
H	 1.798190	 2.086524	 -0.020023
H	 0.021512	 3.966176	 0.203299
H	 -1.609243	 3.613496	 -0.341618
H	 -0.281756	 3.621572	 -1.486476
