%nprocshared=1
%mem=2GB
#HF/6-31G* nosymm scf=tight 

Mol

0 1
H	 5.902512	 -4.897502	 4.258337
C	 5.943911	 -5.403791	 3.298921
C	 6.961232	 -4.743415	 2.369331
H	 6.202220	 -6.442263	 3.483836
H	 4.945766	 -5.381908	 2.869936
C	 7.039980	 -5.429330	 1.003632
H	 7.939279	 -4.759561	 2.839187
H	 6.695468	 -3.696517	 2.231253
C	 5.675179	 -5.689021	 0.365552
H	 7.635877	 -4.826364	 0.327627
H	 7.552653	 -6.382265	 1.113727
C	 4.964761	 -4.436609	 -0.126394
H	 5.792033	 -6.339206	 -0.500112
H	 5.021926	 -6.225654	 1.049995
C	 3.475324	 -4.538016	 -0.405696
O	 5.553454	 -3.413132	 -0.306229
C	 3.142513	 -5.197708	 -1.752249
H	 3.077758	 -3.530724	 -0.373804
H	 3.010537	 -5.105855	 0.398180
C	 3.906992	 -6.506058	 -1.962969
H	 2.073565	 -5.394231	 -1.800676
H	 3.371148	 -4.517137	 -2.568350
C	 3.584233	 -7.172245	 -3.299729
H	 3.675183	 -7.191428	 -1.151430
H	 4.975620	 -6.311267	 -1.903941
H	 2.526789	 -7.408725	 -3.374670
H	 3.837980	 -6.523738	 -4.133494
H	 4.139105	 -8.097216	 -3.419829

10 6 3 2 F

12 15 17 21 F

