%nprocshared=1
%mem=2GB
#HF/6-31G* nosymm scf=tight 

Mol

0 1
O	 1.207296	 1.318672	 0.115127
C	 1.100169	 0.156549	 0.341038
C	 -0.191568	 -0.624003	 0.333908
O	 2.131756	 -0.624062	 0.636755
C	 -1.412532	 0.227344	 -0.000452
H	 -0.074228	 -1.439429	 -0.374657
H	 -0.293295	 -1.092412	 1.309100
C	 -2.706999	 -0.587347	 -0.000541
H	 -1.270261	 0.692401	 -0.971012
H	 -1.489364	 1.040258	 0.714930
C	 -3.956778	 0.291888	 0.000910
H	 -2.726114	 -1.239230	 -0.871609
H	 -2.725217	 -1.240844	 0.869333
H	 -3.985213	 0.933254	 -0.875158
H	 -4.860123	 -0.309979	 0.000519
H	 -3.984618	 0.931166	 0.878514
C	 3.408821	 -0.013632	 0.677002
H	 3.657655	 0.410746	 -0.285012
H	 4.103578	 -0.799237	 0.930156
H	 3.434517	 0.764766	 1.425964

1 2 3 6 F

9 5 3 6 F

1 2 4 17 F

