%nprocshared=1
%mem=2GB
#HF/6-31G* nosymm scf=tight 

Mol

0 1
H	 -3.489899	 1.228218	 -1.029938
O	 -3.452007	 0.283848	 -0.965577
C	 -3.181085	 -0.079926	 0.364119
C	 -1.765924	 0.277073	 0.805136
H	 -3.327791	 -1.152017	 0.410903
H	 -3.905698	 0.375695	 1.036898
C	 -1.651131	 0.584005	 2.298834
H	 -1.096059	 -0.543357	 0.546028
H	 -1.432559	 1.135179	 0.223979
C	 -2.375157	 1.869302	 2.705007
H	 -0.601874	 0.653350	 2.568947
H	 -2.057083	 -0.252904	 2.864679
C	 -3.797112	 1.951986	 2.143498
H	 -2.399949	 1.933353	 3.790227
H	 -1.803946	 2.730811	 2.361315
C	 -3.877906	 2.086518	 0.618529
H	 -4.317913	 2.789412	 2.605211
H	 -4.340698	 1.057317	 2.439975
C	 -5.279179	 1.891871	 0.036335
H	 -3.210753	 1.352879	 0.172465
H	 -3.496296	 3.061788	 0.322852
H	 -5.691670	 0.929111	 0.326306
H	 -5.254038	 1.926124	 -1.048576
H	 -5.968230	 2.660902	 0.369448

20 16 13 17 F

17 13 10 7 F

13 10 7 11 F

11 7 4 3 F

1 2 3 5 F

