%nprocshared=1
%mem=2GB
#HF/6-31G* nosymm scf=tight 

Mol

0 1
H	 5.268524	 0.192471	 1.070992
C	 4.673736	 -0.214914	 0.259335
C	 3.185378	 -0.203514	 0.605509
H	 4.871837	 0.380453	 -0.627026
H	 5.025590	 -1.224632	 0.065769
C	 2.317601	 -0.778379	 -0.516234
H	 2.874655	 0.814325	 0.817774
H	 3.023650	 -0.778480	 1.515976
C	 0.988436	 -0.046441	 -0.702927
H	 2.867503	 -0.753803	 -1.450390
H	 2.105122	 -1.823176	 -0.301074
C	 1.118643	 1.346681	 -1.300842
H	 0.347870	 -0.613969	 -1.376245
H	 0.444193	 0.016724	 0.236746
C	 -0.067795	 2.284529	 -1.161132
O	 2.107045	 1.690751	 -1.876239
C	 -1.338448	 1.782529	 -1.862987
H	 0.234024	 3.240516	 -1.571873
H	 -0.273645	 2.426454	 -0.101808
C	 -2.483211	 2.794545	 -1.785853
H	 -1.112882	 1.573894	 -2.906638
H	 -1.663377	 0.844088	 -1.421150
C	 -3.753479	 2.306410	 -2.480869
H	 -2.163288	 3.732488	 -2.233038
H	 -2.701563	 3.011144	 -0.742395
H	 -3.574026	 2.112231	 -3.534347
H	 -4.118171	 1.386592	 -2.032485
H	 -4.545852	 3.044761	 -2.411154

12 15 17 21 F

16 12 15 17 F

