%nprocshared=1
%mem=2GB
#HF/6-31G* nosymm scf=tight 

Mol

0 1
H	 2.581439	 1.743713	 -1.146008
C	 1.862534	 1.545302	 -0.359411
C	 1.322923	 0.120767	 -0.479465
H	 2.361030	 1.701142	 0.592214
H	 1.066152	 2.278020	 -0.445971
C	 0.306652	 -0.176050	 0.621399
H	 2.136567	 -0.593566	 -0.407775
H	 0.847039	 -0.021586	 -1.442549
N	 -1.068537	 -0.011044	 0.085269
H	 0.372515	 -1.192590	 0.973735
H	 0.391664	 0.520566	 1.441230
O	 -1.656956	 -0.997225	 -0.235017
O	 -1.478635	 1.104830	 -0.018026

12 9 6 3 F

