%nprocshared=1
%mem=2GB
#HF/6-31G* nosymm scf=tight 

Mol

0 1
H	 -3.457960	 0.166880	 1.449720
O	 -3.367910	 -0.300316	 2.267454
C	 -3.043259	 -1.643282	 2.012310
C	 -1.609705	 -1.833855	 1.529264
H	 -3.184960	 -2.163733	 2.950780
H	 -3.740919	 -2.074362	 1.295219
C	 -1.314720	 -1.174099	 0.179978
H	 -0.935821	 -1.437562	 2.284379
H	 -1.414703	 -2.902721	 1.459510
C	 -0.027919	 -0.344222	 0.196282
H	 -2.151929	 -0.539947	 -0.098047
H	 -1.234359	 -1.942599	 -0.588977
C	 1.179864	 -1.041359	 0.833150
H	 0.221614	 -0.050594	 -0.821737
H	 -0.218385	 0.579008	 0.739485
C	 1.057922	 -1.294874	 2.338254
H	 1.327186	 -1.995653	 0.331716
H	 2.077083	 -0.456101	 0.637422
C	 2.238321	 -2.085042	 2.907227
H	 0.134607	 -1.837059	 2.537342
H	 0.977852	 -0.350696	 2.871563
C	 2.122234	 -2.333932	 4.410637
H	 2.316531	 -3.038338	 2.388965
H	 3.162718	 -1.549575	 2.700707
H	 1.223326	 -2.896513	 4.646628
H	 2.972101	 -2.897426	 4.783244
H	 2.079178	 -1.398301	 4.961187

14 10 7 4 F

14 10 13 16 F

8 4 3 2 F

10 13 16 20 F

20 16 19 22 F

4 3 2 1 F

