%nprocshared=1
%mem=2GB
#HF/6-31G* nosymm scf=tight 

Mol

0 1
H	 -0.203252	 -1.743660	 0.837860
C	 -1.035008	 -1.116241	 0.534763
N	 -0.528168	 0.128977	 -0.000000
H	 -1.636070	 -0.917192	 1.414615
H	 -1.641560	 -1.687358	 -0.173182
C	 0.248044	 -0.037491	 -1.209632
H	 -1.287346	 0.758296	 -0.169221
H	 0.998722	 0.743888	 -1.266824
H	 -0.398417	 0.061950	 -2.074060
H	 0.763621	 -0.999315	 -1.275517
