%nprocshared=1
%mem=2GB
#HF/6-31G* nosymm scf=tight 

Mol

0 1
H	 -3.161837	 0.500524	 -0.000234
C	 -2.367097	 -0.232926	 -0.000000
O	 -1.158440	 0.455814	 -0.000122
H	 -2.468853	 -0.861886	 -0.882833
H	 -2.468942	 -0.861421	 0.883154
C	 -1.058687	 1.440634	 0.983775
C	 0.300233	 2.109559	 0.871797
H	 -1.182068	 0.997128	 1.972703
H	 -1.854304	 2.176601	 0.860266
C	 0.778740	 2.687205	 2.203050
H	 1.013705	 1.379728	 0.501706
H	 0.237408	 2.893647	 0.123494
H	 0.871884	 1.913654	 2.960260
H	 1.749754	 3.158460	 2.093980
H	 0.089636	 3.437937	 2.579802

6 3 2 4 F

8 6 3 2 F

