%nprocshared=1
%mem=2GB
#HF/6-31G* nosymm scf=tight opt=ModRedundant

Mol

0 1
H	 -2.186000	 0.880000	 0.473000
C	 -2.033000	 0.000000	 -0.145000
O	 -0.788000	 0.001000	 -0.773000
H	 -2.775000	 0.005000	 -0.932000
H	 -2.189000	 -0.885000	 0.465000
C	 0.393000	 -0.000000	 0.009000
C	 1.513000	 -0.004000	 -1.029000
C	 0.484000	 1.262000	 0.872000
C	 0.480000	 -1.260000	 0.877000
H	 1.438000	 0.873000	 -1.663000
H	 1.435000	 -0.882000	 -1.659000
H	 2.488000	 -0.004000	 -0.552000
H	 0.348000	 2.147000	 0.259000
H	 1.458000	 1.323000	 1.348000
H	 -0.262000	 1.275000	 1.659000
H	 0.341000	 -2.146000	 0.266000
H	 1.453000	 -1.322000	 1.352000
H	 -0.267000	 -1.267000	 1.664000
