%nprocshared=1
%mem=2GB
#HF/6-31G* nosymm scf=tight 

Mol

0 1
O	 1.030418	 -0.195564	 -0.579929
C	 0.028650	 0.075053	 -0.000277
C	 -1.233602	 -0.752807	 0.000328
O	 -0.111967	 1.167797	 0.738668
C	 -2.501530	 0.091881	 0.000126
H	 -1.193807	 -1.406641	 -0.865785
H	 -1.193516	 -1.405779	 0.867015
H	 -2.545121	 0.729328	 -0.874513
H	 -3.377167	 -0.548497	 0.000561
H	 -2.544818	 0.730135	 0.874258
C	 1.004167	 2.035535	 0.821515
H	 1.852194	 1.523324	 1.252680
H	 0.697082	 2.851286	 1.457214
H	 1.272208	 2.404332	 -0.158084

11 4 2 3 F

