%nprocshared=1
%mem=2GB
#HF/6-31G* nosymm scf=tight 

Mol

0 1
H	 2.098138	 -0.723108	 0.922172
C	 1.957379	 -0.265403	 -0.064486
C	 0.691095	 0.535633	 -0.225122
O	 2.773043	 -0.418210	 -0.915057
C	 -0.558097	 -0.297372	 0.091132
H	 0.661170	 0.924888	 -1.236094
H	 0.743811	 1.380960	 0.460059
C	 -1.850991	 0.512573	 -0.019058
H	 -0.604511	 -1.145774	 -0.587715
H	 -0.476550	 -0.709608	 1.095258
C	 -3.096943	 -0.368295	 -0.099594
H	 -1.800724	 1.150330	 -0.898172
H	 -1.931651	 1.177355	 0.838044
H	 -3.060452	 -1.020287	 -0.967456
H	 -3.996858	 0.233488	 -0.175704
H	 -3.191959	 -0.995686	 0.782074

6 3 5 9 F

4 2 3 6 F

