%nprocshared=1
%mem=2GB
#HF/6-31G* nosymm scf=tight 

Mol

0 1
H	 2.762751	 1.921259	 -1.173584
N	 2.000309	 1.273642	 -1.226681
C	 1.865559	 0.531981	 0.018834
H	 2.201831	 0.651008	 -1.985988
C	 0.645745	 -0.382037	 -0.029944
H	 1.740934	 1.253718	 0.820347
H	 2.751575	 -0.058782	 0.264545
C	 -0.679275	 0.379305	 0.025956
H	 0.698998	 -0.976915	 -0.937203
H	 0.693479	 -1.083846	 0.802235
C	 -1.881873	 -0.523786	 0.306239
H	 -0.836160	 0.900149	 -0.917420
H	 -0.624762	 1.149931	 0.793426
C	 -3.204241	 0.240582	 0.357174
H	 -1.939132	 -1.293717	 -0.460013
H	 -1.729132	 -1.043641	 1.249678
H	 -3.402503	 0.744163	 -0.584853
H	 -4.037182	 -0.426464	 0.556835
H	 -3.190979	 0.995876	 1.138036

6 3 5 9 F

12 8 11 15 F

1 2 3 6 F

