%nprocshared=1
%mem=2GB
#HF/6-31G* nosymm scf=tight 

Mol

0 1
H	 0.828766	 -0.589501	 2.248355
C	 -0.126582	 -0.648729	 1.745259
O	 0.000000	 0.000000	 0.521119
H	 -0.391982	 -1.696793	 1.615590
H	 -0.883511	 -0.177185	 2.370075
C	 -1.165642	 0.000000	 -0.238270
H	 -1.228672	 0.883184	 -0.872070
H	 -2.003012	 0.000000	 0.445920
H	 -1.228672	 -0.883184	 -0.872070
