%nprocshared=1
%mem=2GB
#HF/6-31G* nosymm scf=tight 

Mol

0 1
H	 -0.630719	 0.652908	 0.993554
O	 -0.533305	 1.108514	 0.169344
C	 0.721306	 0.817061	 -0.385628
C	 1.008438	 -0.673476	 -0.346633
H	 0.801847	 1.178234	 -1.407110
H	 1.456778	 1.341847	 0.207777
O	 -0.043959	 -1.331029	 -0.978982
H	 1.104452	 -1.009535	 0.687691
H	 1.954876	 -0.876334	 -0.844316
C	 -0.381609	 -0.813417	 -2.226865
H	 0.366496	 -0.106062	 -2.579876
H	 -0.435693	 -1.641239	 -2.920182
H	 -1.346371	 -0.311084	 -2.200645

8 4 3 5 F

1 2 3 5 F

10 7 4 8 F

