%nprocshared=1
%mem=2GB
#HF/6-31G* nosymm scf=tight 

Mol

0 1
H	 2.332609	 0.878551	 -1.051851
C	 2.357710	 0.000000	 -0.417167
C	 1.175432	 0.000000	 0.532082
H	 3.291263	 0.000000	 0.136880
H	 2.332609	 -0.878551	 -1.051851
O	 0.000000	 0.000000	 -0.221444
H	 1.206604	 0.877321	 1.177902
H	 1.206604	 -0.877321	 1.177902
C	 -1.175432	 0.000000	 0.532082
C	 -2.184742	 0.904720	 -0.147353
H	 -0.971957	 0.350013	 1.543929
H	 -1.568069	 -1.013343	 0.614048
H	 -1.798491	 1.915180	 -0.218677
H	 -3.113794	 0.928260	 0.413715
H	 -2.395440	 0.549912	 -1.149861
