%nprocshared=1
%mem=2GB
#HF/6-31G* nosymm scf=tight 

Mol

0 1
H	 -0.216825	 0.021369	 -3.357402
C	 0.374198	 0.036393	 -2.447010
C	 -0.521757	 -0.028637	 -1.217342
H	 0.969602	 0.942322	 -2.434777
H	 1.053364	 -0.811668	 -2.481329
N	 0.263400	 0.031178	 0.000000
H	 -1.199035	 0.820290	 -1.219355
H	 -1.147901	 -0.924895	 -1.265384
C	 -0.521757	 -0.028637	 1.217342
H	 0.935769	 -0.712709	 0.000000
C	 -1.656546	 -1.035450	 1.084562
H	 0.137632	 -0.332918	 2.024810
H	 -0.927428	 0.947787	 1.499600
H	 -1.265435	 -2.018463	 0.847751
H	 -2.225474	 -1.100810	 2.006732
H	 -2.344042	 -0.747727	 0.293224
