%nprocshared=1
%mem=2GB
#HF/6-31G* nosymm scf=tight 

Mol

0 1
O	 -0.488453	 0.057968	 1.132425
C	 -0.451170	 -1.129930	 1.097049
C	 0.801727	 -1.959116	 0.945507
O	 -1.528589	 -1.897310	 1.185968
C	 1.124911	 -2.785238	 2.184071
H	 1.613075	 -1.280220	 0.700432
H	 0.669725	 -2.590969	 0.072237
H	 1.272053	 -2.149836	 3.048928
H	 2.030738	 -3.360307	 2.024106
H	 0.320287	 -3.472711	 2.414906
C	 -2.788014	 -1.299001	 0.897394
C	 -3.086718	 -0.312760	 2.006635
H	 -3.540671	 -2.073283	 0.837551
H	 -2.734454	 -0.812146	 -0.066812
H	 -3.131648	 -0.815028	 2.966253
H	 -4.042441	 0.168393	 1.825708
H	 -2.321098	 0.453103	 2.056989

2 4 11 13 F

4 2 3 6 F

