%nprocshared=1
%mem=2GB
#HF/6-31G* nosymm scf=tight 

Mol

0 1
H	 -2.698709	 -0.000305	 0.034435
C	 -1.693833	 0.000034	 0.434417
O	 -0.828952	 -0.000968	 -0.659236
H	 -1.574200	 0.882896	 1.055746
H	 -1.574147	 -0.881698	 1.057355
C	 0.559449	 -0.000018	 -0.420814
C	 0.906810	 -0.385119	 1.015833
C	 1.330191	 -0.828774	 -1.446522
H	 0.832702	 1.039067	 -0.561050
H	 0.305519	 0.186688	 1.714427
H	 1.952807	 -0.173472	 1.214154
H	 0.745604	 -1.441040	 1.208725
H	 1.021439	 -0.564589	 -2.452174
H	 2.394548	 -0.635650	 -1.355353
H	 1.179551	 -1.894891	 -1.310347

6 3 2 1 F

