%nprocshared=1
%mem=2GB
#HF/6-31G* nosymm scf=tight 

Mol

0 1
H	 5.268524	 0.192471	 1.070992
C	 4.673736	 -0.214914	 0.259335
C	 3.185378	 -0.203514	 0.605509
H	 4.871837	 0.380453	 -0.627026
H	 5.025590	 -1.224632	 0.065769
C	 2.317601	 -0.778379	 -0.516234
H	 2.874655	 0.814325	 0.817774
H	 3.023650	 -0.778480	 1.515976
C	 1.200877	 -1.697627	 -0.021080
H	 1.879334	 0.031634	 -1.088462
H	 2.948056	 -1.343627	 -1.198922
C	 0.071068	 -0.978494	 0.701153
H	 0.748849	 -2.214731	 -0.866091
H	 1.597673	 -2.478917	 0.623370
C	 -0.862475	 -1.817826	 1.555983
O	 -0.092980	 0.199278	 0.590036
C	 -1.647473	 -2.872231	 0.761521
H	 -1.544734	 -1.133417	 2.045699
H	 -0.274627	 -2.311998	 2.327290
C	 -2.647834	 -3.631907	 1.634894
H	 -2.179062	 -2.384905	 -0.053060
H	 -0.962760	 -3.582587	 0.305414
C	 -3.435352	 -4.684206	 0.855543
H	 -3.338289	 -2.924421	 2.087438
H	 -2.117560	 -4.110380	 2.455424
H	 -4.002104	 -4.230837	 0.047475
H	 -2.773605	 -5.427026	 0.419170
H	 -4.136794	 -5.204445	 1.499910

12 15 17 21 F

16 12 15 17 F

