%nprocshared=1
%mem=2GB
#HF/6-31G* nosymm scf=tight 

Mol

0 1
H	 2.780950	 -0.924286	 -1.681180
C	 2.062734	 -1.148110	 -0.900798
C	 1.322923	 0.120767	 -0.479465
H	 1.377463	 -1.896783	 -1.285853
H	 2.604400	 -1.584760	 -0.067415
C	 0.306652	 -0.176050	 0.621399
H	 0.803493	 0.549569	 -1.330199
H	 2.024549	 0.862825	 -0.117066
N	 -1.068537	 -0.011044	 0.085269
H	 0.372515	 -1.192590	 0.973735
H	 0.391664	 0.520566	 1.441230
O	 -1.656956	 -0.997225	 -0.235017
O	 -1.478635	 1.104830	 -0.018026

12 9 6 3 F

