%nprocshared=1
%mem=2GB
#HF/6-31G* nosymm scf=tight 

Mol

0 1
H	 -2.121625	 1.743069	 -1.502619
C	 -1.722558	 0.967655	 -0.875836
C	 -2.559119	 0.159511	 -0.124827
C	 -0.360630	 0.765504	 -0.810743
H	 -3.624227	 0.301297	 -0.162039
C	 -2.031577	 -0.834753	 0.677586
H	 0.312785	 1.372691	 -1.378734
C	 0.154804	 -0.237046	 -0.000077
H	 -2.697413	 -1.451374	 1.252509
C	 -0.661542	 -1.071014	 0.771353
N	 1.611208	 -0.370857	 -0.000034
C	 -0.194730	 -2.186229	 1.680920
O	 2.274126	 0.622059	 -0.008063
O	 2.068510	 -1.474748	 0.007823
H	 0.456034	 -1.816582	 2.461302
H	 -1.056951	 -2.653379	 2.139966
H	 0.358220	 -2.938701	 1.135800
