%nprocshared=1
%mem=2GB
#HF/6-31G* nosymm scf=tight 

Mol

0 1
H	 -3.135461	 -1.215070	 0.001379
O	 -2.310168	 -0.871793	 -0.309793
C	 -2.026376	 0.340750	 0.341611
C	 -0.673256	 0.843270	 -0.132153
H	 -2.792215	 1.080697	 0.115987
H	 -2.013526	 0.200402	 1.421792
C	 0.486613	 -0.083066	 0.235839
H	 -0.715586	 0.970948	 -1.210718
H	 -0.508072	 1.829858	 0.297090
C	 1.840406	 0.433480	 -0.254303
H	 0.300215	 -1.068318	 -0.178947
H	 0.519509	 -0.203625	 1.318070
C	 2.054021	 1.917559	 0.041586
H	 2.635649	 -0.144505	 0.211787
H	 1.927934	 0.263498	 -1.325699
H	 2.006871	 2.114169	 1.108831
H	 3.022429	 2.255323	 -0.314848
H	 1.293732	 2.526702	 -0.439472

10 7 4 8 F

2 3 4 8 F

1 2 3 4 F

