%nprocshared=1
%mem=2GB
#HF/6-31G* nosymm scf=tight 

Mol

0 1
O	 0.768493	 1.271167	 0.278635
C	 0.576249	 0.131685	 -0.000108
C	 -0.766779	 -0.556801	 -0.000461
O	 1.544598	 -0.702647	 -0.356273
C	 -1.945214	 0.412366	 0.000161
H	 -0.796911	 -1.211249	 -0.867467
H	 -0.796854	 -1.212390	 0.865687
C	 -3.287791	 -0.317055	 0.000105
H	 -1.876087	 1.060580	 -0.866812
H	 -1.875822	 1.059691	 0.867761
H	 -3.394745	 -0.949193	 -0.877058
H	 -4.111778	 0.388953	 0.000015
H	 -3.394954	 -0.949187	 0.877259
C	 2.860246	 -0.180495	 -0.396720
H	 2.925604	 0.630111	 -1.108188
H	 3.493094	 -0.998787	 -0.702934
H	 3.157023	 0.177936	 0.578452

9 5 3 6 F

14 4 2 1 F

