%nprocshared=1
%mem=2GB
#HF/6-31G* nosymm scf=tight 

Mol

0 1
H	 -6.007536	 4.569094	 -3.102550
C	 -6.059720	 3.750144	 -2.374387
C	 -5.487861	 4.067649	 -1.016160
O	 -6.540158	 2.707712	 -2.681411
C	 -4.573569	 2.953753	 -0.487425
H	 -4.966348	 5.015778	 -1.077677
H	 -6.329556	 4.193061	 -0.336104
C	 -5.319213	 1.659351	 -0.153004
H	 -3.813107	 2.749121	 -1.235160
H	 -4.042868	 3.309990	 0.394170
C	 -6.253274	 1.803461	 1.050150
H	 -4.594621	 0.871455	 0.042016
H	 -5.894895	 1.331420	 -1.016480
C	 -7.144331	 3.045428	 0.963640
H	 -6.867077	 0.909672	 1.128380
H	 -5.660857	 1.849384	 1.963012
C	 -8.476090	 2.930578	 1.714174
H	 -7.340708	 3.275648	 -0.082366
H	 -6.595566	 3.895780	 1.362978
C	 -9.441535	 1.892099	 1.140506
H	 -8.962502	 3.902772	 1.700334
H	 -8.281521	 2.704290	 2.760528
H	 -9.641833	 2.084110	 0.089658
H	 -9.050397	 0.883621	 1.223924
H	 -10.390864	 1.916855	 1.666962

6 3 5 8 F

6 3 2 4 F

3 5 8 12 F

12 8 11 14 F

20 17 14 18 F

