%nprocshared=1
%mem=2GB
#HF/6-31G* nosymm scf=tight 

Mol

0 1
H	 1.850705	 0.753294	 0.679707
C	 0.998033	 0.828979	 0.019006
O	 0.000000	 0.000000	 0.521119
H	 0.672535	 1.867411	 -0.018415
H	 1.300637	 0.527254	 -0.982534
C	 -1.165642	 0.000000	 -0.238270
H	 -1.228672	 0.883184	 -0.872070
H	 -2.003012	 0.000000	 0.445920
H	 -1.228672	 -0.883184	 -0.872070
