%nprocshared=1
%mem=2GB
#HF/6-31G* nosymm scf=tight 

Mol

0 1
H	 3.316930	 0.922221	 -0.688527
C	 2.604762	 0.715443	 0.102034
C	 1.322923	 0.120767	 -0.479465
H	 3.075910	 0.032837	 0.802350
H	 2.407259	 1.647690	 0.622132
C	 0.306652	 -0.176050	 0.621399
H	 1.545586	 -0.799824	 -1.008956
H	 0.878212	 0.807199	 -1.190313
N	 -1.068537	 -0.011044	 0.085269
H	 0.372515	 -1.192590	 0.973735
H	 0.391664	 0.520566	 1.441230
O	 -1.656956	 -0.997225	 -0.235017
O	 -1.478635	 1.104830	 -0.018026

12 9 6 3 F

