%nprocshared=1
%mem=2GB
#HF/6-31G* nosymm scf=tight 

Mol

0 1
H	 -1.836216	 1.387520	 -0.000064
C	 -1.301823	 0.443321	 -0.000031
O	 -0.003969	 0.658512	 0.000451
O	 -1.829879	 -0.616434	 -0.000857
C	 0.714421	 0.338874	 -1.190739
C	 0.704977	 -1.167470	 -1.336195
H	 1.719762	 0.728128	 -1.106544
H	 0.235597	 0.826674	 -2.028638
H	 1.181308	 -1.639341	 -0.484443
H	 1.243590	 -1.453933	 -2.233451
H	 -0.309987	 -1.540481	 -1.411012

7 5 3 2 F

