%nprocshared=1
%mem=2GB
#HF/6-31G* nosymm scf=tight 

Mol

0 1
H	 -2.273092	 1.173159	 0.000295
O	 -1.438904	 1.618192	 0.000114
C	 -0.409536	 0.736003	 0.000030
C	 -0.212997	 0.009829	 1.164179
C	 0.418280	 0.556386	 -1.106043
H	 -0.874388	 0.179388	 1.993517
C	 0.816957	 -0.908445	 1.238195
C	 1.445798	 -0.373494	 -1.003483
C	 0.202282	 1.349775	 -2.375250
H	 0.964117	 -1.468673	 2.144276
C	 1.654198	 -1.105637	 0.151862
H	 2.094145	 -0.523967	 -1.849266
H	 0.295930	 2.420606	 -2.206450
H	 0.935661	 1.079966	 -3.124474
H	 -0.779411	 1.166578	 -2.807355
H	 2.457280	 -1.818173	 0.202360
