%nprocshared=1
%mem=2GB
#HF/6-31G* nosymm scf=tight 

Mol

0 1
H	 -3.042581	 -0.665861	 0.004336
O	 -2.245037	 -1.176175	 0.000806
C	 -1.162163	 -0.365336	 0.001020
C	 -1.224187	 0.957122	 0.401755
C	 0.040888	 -0.913773	 -0.426434
H	 -2.156510	 1.384337	 0.730745
C	 -0.069160	 1.725790	 0.370593
H	 0.052374	 -1.943842	 -0.732933
C	 1.192400	 -0.146789	 -0.455902
H	 -0.114278	 2.755218	 0.679273
C	 1.128987	 1.187203	 -0.052894
C	 2.506100	 -0.748553	 -0.897687
H	 2.015251	 1.796654	 -0.073757
H	 3.045710	 -0.072172	 -1.551996
H	 2.355572	 -1.681221	 -1.428096
H	 3.143207	 -0.952841	 -0.041704
