%nprocshared=1
%mem=2GB
#HF/6-31G* nosymm scf=tight 

Mol

0 1
O	 -0.682937	 1.318834	 -0.186099
C	 -0.860635	 0.152188	 -0.042321
C	 -2.173363	 -0.477127	 0.338347
O	 0.083258	 -0.765189	 -0.202595
H	 -2.477673	 -1.180929	 -0.427595
H	 -2.923125	 0.290956	 0.455536
H	 -2.058825	 -1.029004	 1.264191
C	 1.391937	 -0.334737	 -0.569838
C	 2.394504	 -0.593247	 0.539521
H	 1.360294	 0.711337	 -0.834164
H	 1.630596	 -0.913923	 -1.450227
H	 3.391555	 -0.326178	 0.202929
H	 2.161582	 -0.001349	 1.415748
H	 2.397303	 -1.642500	 0.814248

8 4 2 1 F

