%nprocshared=1
%mem=2GB
#HF/6-31G* nosymm scf=tight 

Mol

0 1
H	 -2.176942	 -1.056314	 1.726249
C	 -1.515654	 -0.638808	 0.992905
C	 -1.957616	 0.358577	 0.061554
C	 -0.239014	 -1.036153	 0.917236
H	 -2.977529	 0.698537	 0.096900
C	 -1.112039	 0.866024	 -0.846719
H	 0.169696	 -1.777680	 1.577160
N	 0.640212	 -0.532897	 -0.000111
H	 -1.406796	 1.612437	 -1.558295
C	 0.277124	 0.433509	 -0.928821
C	 2.010177	 -1.032049	 0.000042
O	 1.068347	 0.864870	 -1.730132
H	 2.187698	 -1.635381	 -0.882279
H	 2.677579	 -0.189247	 -0.001871
H	 2.188882	 -1.632203	 0.884288
