%nprocshared=1
%mem=2GB
#HF/6-31G* nosymm scf=tight 

Mol

0 1
O	 0.241670	 1.007992	 0.704718
C	 0.028650	 0.075053	 -0.000277
C	 -1.233602	 -0.752807	 0.000328
O	 0.895677	 -0.369773	 -0.900441
C	 -2.501530	 0.091881	 0.000126
H	 -1.193807	 -1.406641	 -0.865785
H	 -1.193516	 -1.405779	 0.867015
H	 -2.545121	 0.729328	 -0.874513
H	 -3.377167	 -0.548497	 0.000561
H	 -2.544818	 0.730135	 0.874258
C	 2.127332	 0.321692	 -1.002857
H	 1.961568	 1.354714	 -1.272675
H	 2.685064	 -0.182188	 -1.776744
H	 2.664962	 0.280843	 -0.066504

11 4 2 3 F

