%nprocshared=1
%mem=2GB
#HF/6-31G* nosymm scf=tight 

Mol

0 1
H	 -2.499100	 -0.730091	 -0.745082
O	 -2.347518	 -0.290803	 0.079804
C	 -1.184022	 0.487508	 -0.006784
C	 0.062599	 -0.378592	 0.031606
H	 -1.176523	 1.099369	 -0.904519
H	 -1.187323	 1.153111	 0.844927
O	 -0.339739	 -1.711972	 0.031458
H	 0.647046	 -0.154467	 0.926129
H	 0.688482	 -0.156418	 -0.830655
C	 0.706670	 -2.630759	 0.031891
H	 1.331398	 -2.521865	 0.916474
H	 0.272180	 -3.620766	 0.029594
H	 1.334191	 -2.518420	 -0.849805

1 2 3 5 F

10 7 4 8 F

4 7 10 13 F

