%nprocshared=1
%mem=2GB
#HF/6-31G* nosymm scf=tight 

Mol

0 1
O	 3.225979	 0.970355	 -0.599647
C	 2.701189	 0.057885	 -0.047330
C	 1.245376	 -0.013843	 0.345420
O	 3.347903	 -1.046386	 0.304773
C	 0.455112	 1.231400	 -0.050772
H	 0.838542	 -0.913825	 -0.103701
H	 1.208210	 -0.175333	 1.419774
C	 -0.998893	 1.219485	 0.433193
H	 0.482531	 1.345121	 -1.130325
H	 0.957290	 2.103070	 0.354729
C	 -1.883438	 0.145884	 -0.207175
H	 -1.431207	 2.195402	 0.224832
H	 -1.019646	 1.105716	 1.516076
C	 -3.229479	 -0.016665	 0.501876
H	 -2.055849	 0.400791	 -1.251740
H	 -1.368863	 -0.812336	 -0.207476
C	 -3.106843	 -0.609687	 1.906659
H	 -3.878632	 -0.650803	 -0.099542
H	 -3.723259	 0.951877	 0.563575
C	 -2.030550	 0.071802	 2.750974
H	 -4.065872	 -0.532926	 2.414609
H	 -2.886303	 -1.672433	 1.831062
H	 -1.967690	 -0.370354	 3.740496
H	 -2.241157	 1.130365	 2.874605
H	 -1.052658	 -0.017444	 2.286176
C	 4.728119	 -1.109107	 -0.004993
H	 4.882018	 -1.033965	 -1.071845
H	 5.068212	 -2.067527	 0.355250
H	 5.265056	 -0.311663	 0.488280

21 17 14 11 F

17 14 11 15 F

6 3 5 9 F

11 8 5 9 F

2 4 26 27 F

1 2 4 26 F

6 3 2 1 F

