%nprocshared=1
%mem=2GB
#HF/6-31G* nosymm scf=tight 

Mol

0 1
H	 0.387814	 1.021263	 -3.811708
O	 0.120259	 0.340651	 -4.411919
C	 0.810891	 -0.847344	 -4.119091
C	 0.327524	 -1.524312	 -2.841282
H	 0.643260	 -1.501400	 -4.965132
H	 1.882703	 -0.660898	 -4.062195
C	 0.562168	 -0.699902	 -1.573150
H	 -0.732631	 -1.740246	 -2.945252
H	 0.838789	 -2.481233	 -2.750297
C	 0.115918	 -1.429151	 -0.302766
H	 0.028977	 0.243033	 -1.656500
H	 1.621295	 -0.455225	 -1.491146
C	 0.579824	 -2.886769	 -0.200376
H	 0.466159	 -0.878040	 0.568127
H	 -0.970893	 -1.409739	 -0.256245
C	 0.727785	 -3.417141	 1.228361
H	 -0.136855	 -3.511425	 -0.729518
H	 1.526011	 -3.000648	 -0.727253
C	 1.089510	 -4.903113	 1.278129
H	 -0.203924	 -3.256926	 1.769064
H	 1.489685	 -2.852392	 1.760217
C	 1.244105	 -5.433542	 2.703053
H	 0.324002	 -5.477389	 0.760738
H	 2.015148	 -5.066637	 0.730097
H	 0.323796	 -5.314109	 3.267847
H	 1.498359	 -6.488998	 2.704892
H	 2.028698	 -4.903778	 3.236090

14 10 7 4 F

10 7 4 8 F

8 4 3 2 F

10 13 16 20 F

20 16 19 22 F

4 3 2 1 F

