%nprocshared=1
%mem=2GB
#HF/6-31G* nosymm scf=tight 

Mol

0 1
O	 -2.042549	 -1.228399	 -0.269030
C	 -1.653912	 -0.146171	 0.050137
C	 -0.332303	 0.024011	 0.778412
C	 -2.438579	 1.106236	 -0.272369
C	 0.845713	 -0.001731	 -0.208243
H	 -0.323783	 0.953829	 1.340327
H	 -0.235459	 -0.796807	 1.480410
C	 2.032183	 -0.814345	 0.312312
H	 1.172340	 1.015326	 -0.417987
H	 0.499682	 -0.417771	 -1.149685
C	 1.618583	 -2.179237	 0.861137
H	 2.756369	 -0.950259	 -0.488006
H	 2.538487	 -0.249260	 1.091352
H	 1.139069	 -2.781787	 0.094942
H	 0.918874	 -2.074285	 1.685051
H	 2.478923	 -2.731501	 1.225616
H	 -3.277823	 0.863061	 -0.908988
H	 -1.806773	 1.843019	 -0.759671
H	 -2.802853	 1.554979	 0.648059

11 8 5 9 F

5 3 2 4 F

