%nprocshared=1
%mem=2GB
#HF/6-31G* nosymm scf=tight 

Mol

0 1
H	 -2.499100	 -0.730091	 -0.745082
O	 -2.347518	 -0.290803	 0.079804
C	 -1.184022	 0.487508	 -0.006784
C	 0.062599	 -0.378592	 0.031606
H	 -1.176523	 1.099369	 -0.904519
H	 -1.187323	 1.153111	 0.844927
O	 0.189153	 -1.005544	 -1.205607
H	 -0.019930	 -1.118742	 0.829946
H	 0.930889	 0.240374	 0.249640
C	 1.315817	 -1.814367	 -1.330406
H	 1.308363	 -2.622288	 -0.601134
H	 1.304280	 -2.239553	 -2.324381
H	 2.231997	 -1.241766	 -1.201820

1 2 3 5 F

10 7 4 8 F

4 7 10 13 F

