%nprocshared=1
%mem=2GB
#HF/6-31G* nosymm scf=tight 

Mol

0 1
H	 0.697763	 2.132307	 1.349622
C	 1.029945	 1.288710	 0.731800
C	 0.065331	 0.871482	 -0.349150
O	 2.083022	 0.777643	 0.935659
C	 -1.339775	 0.583656	 0.198860
H	 0.476309	 0.008094	 -0.859613
H	 0.010396	 1.690064	 -1.065437
C	 -1.808407	 -0.848507	 -0.061364
H	 -2.036183	 1.280685	 -0.256307
H	 -1.360094	 0.788874	 1.267089
H	 -1.828843	 -1.063152	 -1.125336
H	 -2.808409	 -1.004529	 0.329750
H	 -1.153967	 -1.577789	 0.406873

6 3 2 4 F

