%nprocshared=1
%mem=2GB
#HF/6-31G* nosymm scf=tight 
prop=(read,field)

Mol

0 1
H	 -4.236799	 0.538113	 0.039740
O	 -3.517415	 -0.026182	 -0.205132
C	 -2.307191	 0.532363	 0.237560
C	 -1.178168	 -0.397182	 -0.171097
H	 -2.156613	 1.517584	 -0.201727
H	 -2.315320	 0.655693	 1.319717
C	 0.197797	 0.111040	 0.262825
H	 -1.209148	 -0.518750	 -1.250444
H	 -1.369046	 -1.376545	 0.258892
C	 1.331499	 -0.827771	 -0.158785
H	 0.361638	 1.100847	 -0.156235
H	 0.216960	 0.229081	 1.345515
C	 2.723314	 -0.410560	 0.329442
H	 1.342659	 -0.912579	 -1.244137
H	 1.116501	 -1.824334	 0.220762
C	 3.243570	 0.895863	 -0.272992
H	 3.423917	 -1.207115	 0.091233
H	 2.714483	 -0.329845	 1.414602
H	 3.251672	 0.848788	 -1.358698
H	 2.636780	 1.747380	 0.016665
H	 4.259168	 1.094079	 0.055680

@grid.dat /N
