%nprocshared=1
%mem=2GB
#HF/6-31G* nosymm scf=tight 

Mol

0 1
H	 -0.944757	 -0.000069	 1.678017
O	 -0.042387	 -0.000390	 1.388199
C	 -0.001487	 0.000018	 -0.026623
C	 0.264193	 1.419835	 -0.530780
C	 1.087097	 -0.961320	 -0.507724
C	 -1.380162	 -0.480681	 -0.465493
H	 0.260105	 1.462301	 -1.615251
H	 1.233833	 1.775643	 -0.190038
H	 -0.493438	 2.099059	 -0.155722
H	 1.118002	 -1.014292	 -1.591388
H	 2.067217	 -0.637708	 -0.164837
H	 0.907039	 -1.957225	 -0.118329
H	 -1.453434	 -0.515910	 -1.547683
H	 -2.147058	 0.186426	 -0.088232
H	 -1.573365	 -1.472691	 -0.073088
