%nprocshared=1
%mem=2GB
#HF/6-31G* nosymm scf=tight 

Mol

0 1
O	 -0.682937	 1.318834	 -0.186099
C	 -0.860635	 0.152188	 -0.042321
C	 -2.173363	 -0.477127	 0.338347
O	 0.083258	 -0.765189	 -0.202595
H	 -2.477673	 -1.180929	 -0.427595
H	 -2.923125	 0.290956	 0.455536
H	 -2.058825	 -1.029004	 1.264191
C	 1.391937	 -0.334737	 -0.569838
C	 1.553020	 1.164426	 -0.398929
H	 1.592951	 -0.637607	 -1.586206
H	 2.051076	 -0.873426	 0.095631
H	 2.578360	 1.450278	 -0.612693
H	 0.901859	 1.702205	 -1.076537
H	 1.322287	 1.459262	 0.619034

8 4 2 1 F

