%nprocshared=1
%mem=2GB
#HF/6-31G* nosymm scf=tight 

Mol

0 1
H	 2.822660	 1.908748	 -0.180739
C	 2.277897	 0.990010	 0.017732
C	 0.786421	 1.192633	 -0.230386
H	 2.448429	 0.703670	 1.049571
H	 2.698846	 0.217039	 -0.616186
N	 -0.000257	 -0.000071	 0.054619
H	 0.444076	 1.990281	 0.416865
H	 0.619725	 1.539915	 -1.254249
C	 -1.363055	 0.315058	 0.462241
C	 0.046929	 -0.971450	 -1.030210
C	 -2.412078	 -0.285320	 -0.468531
H	 -1.482241	 1.391144	 0.451970
H	 -1.549931	 -0.001174	 1.492681
C	 -0.136725	 -2.406697	 -0.546910
H	 1.014945	 -0.900616	 -1.509879
H	 -0.692149	 -0.737408	 -1.802074
H	 -2.262839	 0.075384	 -1.480151
H	 -2.369300	 -1.368867	 -0.491760
H	 -3.410332	 -0.003975	 -0.144961
H	 0.632503	 -2.658251	 0.174645
H	 -1.100389	 -2.561097	 -0.073556
H	 -0.067424	 -3.098752	 -1.381526
