%nprocshared=24
%mem=2GB
#HF/6-31G* nosymm scf=tight 

Mol

0 1
H	 -2.463887	 -1.404751	 3.174456
C	 -2.393282	 -1.145213	 2.135980
C	 -1.224516	 -1.150904	 1.538115
H	 -3.292956	 -0.884230	 1.609638
O	 -0.657088	 -2.296302	 1.076976
H	 -0.658719	 -0.253794	 1.361207
C	 0.649758	 -2.243189	 0.617882
C	 0.729497	 -1.659631	 -0.774827
H	 1.121350	 -3.219565	 0.601770
H	 1.205296	 -1.596420	 1.280142
F	 -0.180239	 -0.705053	 -0.905740
F	 1.913172	 -1.120419	 -1.013725
F	 0.504690	 -2.564677	 -1.704162

11 8 7 9 F

3 5 7 9 F

6 3 5 7 F

