%nprocshared=1
%mem=2GB
#HF/6-31G* nosymm scf=tight 

Mol

0 1
H	 -3.161837	 0.500524	 -0.000234
C	 -2.367097	 -0.232926	 -0.000000
O	 -1.158440	 0.455814	 -0.000122
H	 -2.468853	 -0.861886	 -0.882833
H	 -2.468942	 -0.861421	 0.883154
C	 -1.058687	 1.440634	 0.983775
C	 0.300233	 2.109559	 0.871797
H	 -1.182068	 0.997128	 1.972703
H	 -1.854304	 2.176601	 0.860266
C	 0.196056	 3.630353	 0.765914
H	 0.892153	 1.833803	 1.739121
H	 0.811535	 1.707091	 0.002723
H	 -0.291606	 4.056024	 1.638505
H	 1.179555	 4.081263	 0.686830
H	 -0.373476	 3.928484	 -0.109960

6 3 2 4 F

8 6 3 2 F

