%nprocshared=1
%mem=2GB
#HF/6-31G* nosymm scf=tight 

Mol

0 1
H	 -0.314752	 3.001425	 -0.790005
C	 0.411227	 2.338203	 -0.303388
C	 0.065331	 0.871482	 -0.349150
O	 1.385684	 2.789984	 0.204596
C	 0.073924	 0.223927	 1.043000
H	 0.758321	 0.377481	 -1.020449
H	 -0.932786	 0.789054	 -0.777085
C	 -0.508702	 -1.189866	 1.055632
H	 -0.493192	 0.855151	 1.719718
H	 1.091765	 0.205671	 1.426806
H	 -1.537307	 -1.189121	 0.708506
H	 -0.495291	 -1.603965	 2.058457
H	 0.052553	 -1.862539	 0.413841

6 3 5 9 F

