%nprocshared=1
%mem=2GB
#HF/6-31G* nosymm scf=tight 

Mol

0 1
O	 -1.487274	 -1.523468	 1.527585
C	 -0.451170	 -1.129930	 1.097049
C	 0.801727	 -1.959116	 0.945507
O	 -0.256656	 0.115750	 0.687108
C	 1.124911	 -2.785238	 2.184071
H	 1.613075	 -1.280220	 0.700432
H	 0.669725	 -2.590969	 0.072237
H	 1.272053	 -2.149836	 3.048928
H	 2.030738	 -3.360307	 2.024106
H	 0.320287	 -3.472711	 2.414906
C	 -1.356598	 1.015850	 0.772834
C	 -2.386573	 0.571955	 -0.244230
H	 -1.006681	 2.019902	 0.575294
H	 -1.752754	 0.993724	 1.778897
H	 -1.972704	 0.594460	 -1.245911
H	 -3.245979	 1.233828	 -0.212722
H	 -2.722978	 -0.437319	 -0.035774

2 4 11 13 F

11 4 2 3 F

