%nprocshared=1
%mem=2GB
#HF/6-31G* nosymm scf=tight 

Mol

0 1
H	 2.762751	 1.921259	 -1.173584
N	 2.000309	 1.273642	 -1.226681
C	 1.865559	 0.531981	 0.018834
H	 2.201831	 0.651008	 -1.985988
C	 0.645745	 -0.382037	 -0.029944
H	 1.740934	 1.253718	 0.820347
H	 2.751575	 -0.058782	 0.264545
C	 -0.679275	 0.379305	 0.025956
H	 0.698998	 -0.976915	 -0.937203
H	 0.693479	 -1.083846	 0.802235
C	 -0.913373	 1.084147	 1.363406
H	 -1.500204	 -0.310981	 -0.162274
H	 -0.710855	 1.115327	 -0.775993
C	 -2.240407	 1.840253	 1.416244
H	 -0.883560	 0.350564	 2.166015
H	 -0.095884	 1.776553	 1.552988
H	 -3.080638	 1.168582	 1.263969
H	 -2.377509	 2.328405	 2.376200
H	 -2.286791	 2.605591	 0.646505

6 3 5 9 F

12 8 11 15 F

1 2 3 6 F

