%nprocshared=1
%mem=2GB
#HF/6-31G* nosymm scf=tight 

Mol

0 1
H	 -3.135461	 -1.215070	 0.001379
O	 -2.310168	 -0.871793	 -0.309793
C	 -2.026376	 0.340750	 0.341611
C	 -0.673256	 0.843270	 -0.132153
H	 -2.792215	 1.080697	 0.115987
H	 -2.013526	 0.200402	 1.421792
C	 0.486613	 -0.083066	 0.235839
H	 -0.715586	 0.970948	 -1.210718
H	 -0.508072	 1.829858	 0.297090
C	 1.845169	 0.453966	 -0.217745
H	 0.315038	 -1.059899	 -0.204471
H	 0.500862	 -0.228002	 1.315483
C	 2.058780	 0.335288	 -1.726372
H	 1.935948	 1.497155	 0.077608
H	 2.638724	 -0.079910	 0.301572
H	 1.300382	 0.888094	 -2.273298
H	 3.028734	 0.725638	 -2.019223
H	 2.008119	 -0.700902	 -2.049259

14 10 7 11 F

2 3 4 8 F

1 2 3 4 F

