%nprocshared=1
%mem=2GB
#HF/6-31G* nosymm scf=tight 

Mol

0 1
H	 -2.455767	 -0.714878	 -0.691608
N	 -1.730209	 -0.024196	 -0.689823
C	 -0.563778	 -0.502042	 0.037919
H	 -2.108923	 0.792591	 -0.249152
C	 0.575259	 0.508231	 -0.048326
H	 -0.248860	 -1.435565	 -0.418763
H	 -0.772351	 -0.722253	 1.088038
C	 1.954651	 -0.143624	 0.035137
H	 0.475158	 1.060484	 -0.977307
H	 0.469181	 1.234488	 0.755973
H	 2.103292	 -0.853109	 -0.774172
H	 2.742821	 0.599562	 -0.030094
H	 2.083613	 -0.679371	 0.971560

1 2 3 6 F

