%nprocshared=1
%mem=2GB
#HF/6-31G* nosymm scf=tight 

Mol

0 1
H	 2.451652	 -2.178703	 0.543297
O	 2.773837	 -1.297590	 0.410870
C	 1.759943	 -0.431505	 0.213148
C	 2.013968	 0.676836	 -0.588721
C	 0.508955	 -0.610775	 0.770843
H	 2.994367	 0.793741	 -1.010633
C	 1.016760	 1.599382	 -0.828616
H	 0.285517	 -1.455311	 1.392422
C	 -0.469265	 0.335006	 0.509305
H	 1.221558	 2.452135	 -1.448880
C	 -0.248752	 1.441606	 -0.279591
N	 -1.790902	 0.140583	 1.101727
H	 -1.032456	 2.148637	 -0.456563
O	 -2.013917	 -0.908519	 1.626781
O	 -2.569747	 1.040583	 1.026474

11 9 12 14 F

