%nprocshared=1
%mem=2GB
#HF/6-31G* nosymm scf=tight 

Mol

0 1
H	 -3.059821	 3.400107	 0.959673
N	 -2.175168	 2.931933	 0.917868
C	 -2.240021	 1.644800	 1.595076
H	 -1.508930	 3.531565	 1.366643
C	 -0.921757	 0.892693	 1.445843
H	 -3.035757	 1.068798	 1.132600
H	 -2.490773	 1.729895	 2.655397
C	 -0.679275	 0.379305	 0.025956
H	 -0.114167	 1.552527	 1.749570
H	 -0.910952	 0.052481	 2.139575
C	 -0.791153	 1.473151	 -1.037697
H	 -1.393524	 -0.411420	 -0.198657
H	 0.307843	 -0.076713	 -0.033138
C	 -2.115055	 2.234023	 -0.975523
H	 0.033362	 2.173024	 -0.921214
H	 -0.676491	 1.028719	 -2.024099
H	 -2.243718	 2.718807	 -0.011807
H	 -2.163946	 3.002377	 -1.740928
H	 -2.958889	 1.565841	 -1.123406

6 3 5 9 F

12 8 5 9 F

1 2 3 6 F

