%nprocshared=1
%mem=2GB
#HF/6-31G* nosymm scf=tight 

Mol

0 1
H	 -0.216825	 0.021369	 -3.357402
C	 0.374198	 0.036393	 -2.447010
C	 -0.521757	 -0.028637	 -1.217342
H	 0.969602	 0.942322	 -2.434777
H	 1.053364	 -0.811668	 -2.481329
N	 0.263400	 0.031178	 0.000000
H	 -1.199035	 0.820290	 -1.219355
H	 -1.147901	 -0.924895	 -1.265384
C	 -0.521757	 -0.028637	 1.217342
H	 0.935769	 -0.712709	 0.000000
C	 -1.314889	 -1.326567	 1.290619
H	 0.162964	 0.023526	 2.058663
H	 -1.200953	 0.823647	 1.317083
H	 -0.649636	 -2.180921	 1.236944
H	 -1.879188	 -1.383261	 2.216200
H	 -2.022456	 -1.399447	 0.468616
