%nprocshared=1
%mem=2GB
#HF/6-31G* nosymm scf=tight 

Mol

0 1
H	 -3.457960	 0.166880	 1.449720
O	 -3.367910	 -0.300316	 2.267454
C	 -3.043259	 -1.643282	 2.012310
C	 -1.609705	 -1.833855	 1.529264
H	 -3.184960	 -2.163733	 2.950780
H	 -3.740919	 -2.074362	 1.295219
C	 -1.304155	 -1.141852	 0.198610
H	 -0.935092	 -1.463293	 2.296694
H	 -1.423788	 -2.902223	 1.432352
C	 -2.041398	 -1.779388	 -0.982423
H	 -0.233369	 -1.173117	 0.017488
H	 -1.580337	 -0.089462	 0.265980
C	 -3.531076	 -2.049795	 -0.741425
H	 -1.928148	 -1.145033	 -1.859699
H	 -1.555424	 -2.721909	 -1.225703
C	 -3.829610	 -3.119540	 0.312615
H	 -4.001909	 -1.118587	 -0.433230
H	 -4.002486	 -2.329121	 -1.682481
C	 -5.325355	 -3.278637	 0.593458
H	 -3.316402	 -2.864185	 1.238640
H	 -3.427838	 -4.079117	 -0.003761
C	 -5.626515	 -4.350321	 1.640578
H	 -5.732584	 -2.325953	 0.925188
H	 -5.841171	 -3.524259	 -0.332549
H	 -5.150906	 -4.116467	 2.588909
H	 -6.693856	 -4.437710	 1.818853
H	 -5.264066	 -5.323578	 1.321571

14 10 7 4 F

14 10 13 16 F

10 7 4 8 F

10 13 16 20 F

20 16 19 22 F

4 3 2 1 F

