%nprocshared=1
%mem=2GB
#HF/6-31G* nosymm scf=tight 

Mol

0 1
H	 -3.457960	 0.166880	 1.449720
O	 -3.367910	 -0.300316	 2.267454
C	 -3.043259	 -1.643282	 2.012310
C	 -1.609705	 -1.833855	 1.529264
H	 -3.184960	 -2.163733	 2.950780
H	 -3.740919	 -2.074362	 1.295219
C	 -1.498253	 -2.526401	 0.168814
H	 -1.128890	 -0.860152	 1.483601
H	 -1.074725	 -2.417128	 2.276897
C	 -1.932300	 -3.994147	 0.215123
H	 -0.471784	 -2.462472	 -0.181385
H	 -2.111739	 -1.995343	 -0.559165
C	 -3.255309	 -4.251646	 0.945658
H	 -2.001241	 -4.379290	 -0.800632
H	 -1.150633	 -4.570897	 0.705078
C	 -3.223060	 -3.980119	 2.452214
H	 -4.021587	 -3.623234	 0.496512
H	 -3.568035	 -5.280020	 0.771052
C	 -4.590485	 -4.149169	 3.117802
H	 -2.862363	 -2.967442	 2.626845
H	 -2.512055	 -4.644651	 2.937159
C	 -4.559783	 -3.884964	 4.622766
H	 -5.304960	 -3.476508	 2.648184
H	 -4.956882	 -5.157450	 2.936119
H	 -4.228249	 -2.872709	 4.836420
H	 -5.543364	 -4.010779	 5.064776
H	 -3.881155	 -4.567116	 5.127244

14 10 7 4 F

14 10 13 16 F

10 7 4 8 F

10 13 16 20 F

20 16 19 22 F

4 3 2 1 F

