%nprocshared=1
%mem=2GB
#HF/6-31G* nosymm scf=tight 

Mol

0 1
H	 -3.824164	 -1.285972	 -2.033493
C	 -4.107524	 -0.594267	 -1.230453
C	 -5.253923	 0.328011	 -1.558756
O	 -3.523099	 -0.608519	 -0.196048
C	 -4.973006	 1.782491	 -1.156474
H	 -5.469922	 0.241867	 -2.617355
H	 -6.122713	 -0.033837	 -1.010189
C	 -4.902224	 1.994114	 0.357958
H	 -4.034020	 2.088894	 -1.607813
H	 -5.738575	 2.429355	 -1.582183
C	 -6.253274	 1.803461	 1.050150
H	 -4.528607	 2.995779	 0.560254
H	 -4.176831	 1.309108	 0.792828
C	 -7.144331	 3.045428	 0.963640
H	 -6.759475	 0.950440	 0.605350
H	 -6.089580	 1.551128	 2.097010
C	 -8.476090	 2.930578	 1.714174
H	 -7.340708	 3.275648	 -0.082366
H	 -6.595566	 3.895780	 1.362978
C	 -9.441535	 1.892099	 1.140506
H	 -8.962502	 3.902772	 1.700334
H	 -8.281521	 2.704290	 2.760528
H	 -9.641833	 2.084110	 0.089658
H	 -9.050397	 0.883621	 1.223924
H	 -10.390864	 1.916855	 1.666962

6 3 5 8 F

6 3 2 4 F

3 5 8 12 F

8 11 14 18 F

20 17 14 18 F

