%nprocshared=1
%mem=2GB
#HF/6-31G* nosymm scf=tight 

Mol

0 1
H	 2.307264	 -3.259741	 -3.240400
C	 1.802633	 -3.287470	 -2.280021
C	 0.609960	 -2.332490	 -2.257465
H	 1.488405	 -4.312139	 -2.102426
H	 2.531282	 -3.028544	 -1.516952
C	 -0.127859	 -2.340084	 -0.922563
H	 -0.093203	 -2.592327	 -3.042599
H	 0.953970	 -1.321924	 -2.471485
N	 -1.268658	 -1.446027	 -0.948991
H	 -0.493974	 -3.343243	 -0.721080
H	 0.572224	 -2.098619	 -0.115744
C	 -1.217365	 -0.386708	 0.039277
H	 -1.355622	 -1.044301	 -1.863373
C	 -2.452633	 0.504241	 -0.042481
H	 -1.172857	 -0.848333	 1.022069
H	 -0.315698	 0.227728	 -0.054795
C	 -3.758029	 -0.289423	 -0.010781
H	 -2.394220	 1.093569	 -0.952170
H	 -2.440793	 1.210787	 0.785871
H	 -3.816659	 -0.981993	 -0.845726
H	 -4.617837	 0.370165	 -0.069296
H	 -3.847478	 -0.867502	 0.904682

15 12 14 18 F

