%nprocshared=1
%mem=2GB
#HF/6-31G* nosymm scf=tight 

Mol

0 1
H	 1.923844	 -3.696132	 -3.677539
C	 1.750840	 -3.316907	 -2.675537
C	 0.550860	 -2.371359	 -2.644732
H	 1.594488	 -4.170908	 -2.022495
H	 2.658316	 -2.815174	 -2.351502
C	 0.273405	 -1.814007	 -1.252333
H	 -0.339375	 -2.883930	 -2.995648
H	 0.725095	 -1.546185	 -3.333297
N	 -0.887868	 -0.946318	 -1.256767
H	 0.073710	 -2.636212	 -0.570377
H	 1.169068	 -1.309576	 -0.874557
C	 -1.217365	 -0.386708	 0.039277
H	 -0.745307	 -0.202760	 -1.913912
C	 -2.452633	 0.504241	 -0.042481
H	 -1.414604	 -1.211314	 0.719041
H	 -0.385747	 0.179003	 0.472597
C	 -3.758029	 -0.289423	 -0.010781
H	 -2.394220	 1.093569	 -0.952170
H	 -2.440793	 1.210787	 0.785871
H	 -3.816659	 -0.981993	 -0.845726
H	 -4.617837	 0.370165	 -0.069296
H	 -3.847478	 -0.867502	 0.904682

10 6 9 12 F

