%nprocshared=1
%mem=2GB
#HF/6-31G* nosymm scf=tight 

Mol

0 1
H	 -3.135461	 -1.215070	 0.001379
O	 -2.310168	 -0.871793	 -0.309793
C	 -2.026376	 0.340750	 0.341611
C	 -0.673256	 0.843270	 -0.132153
H	 -2.792215	 1.080697	 0.115987
H	 -2.013526	 0.200402	 1.421792
C	 0.486613	 -0.083066	 0.235839
H	 -0.715586	 0.970948	 -1.210718
H	 -0.508072	 1.829858	 0.297090
C	 0.359256	 -1.474052	 -0.387662
H	 0.542422	 -0.171196	 1.315946
H	 1.423344	 0.369936	 -0.086907
C	 -0.710550	 -2.332798	 0.285944
H	 0.126515	 -1.373587	 -1.445705
H	 1.318373	 -1.985565	 -0.333883
H	 -1.688051	 -1.863981	 0.218182
H	 -0.780070	 -3.311977	 -0.178081
H	 -0.488599	 -2.480979	 1.339173

14 10 7 11 F

2 3 4 8 F

1 2 3 4 F

