%nprocshared=1
%mem=2GB
#HF/6-31G* nosymm scf=tight 

Mol

0 1
H	 -0.852447	 -0.915072	 -3.710173
N	 -1.253848	 -0.626795	 -2.838785
C	 -0.761115	 -1.452304	 -1.745498
H	 -2.247240	 -0.723618	 -2.931671
C	 -1.297744	 -0.949767	 -0.409369
H	 0.322579	 -1.385492	 -1.744594
H	 -1.009396	 -2.510328	 -1.861004
C	 -0.679275	 0.379305	 0.025956
H	 -2.376909	 -0.854069	 -0.487339
H	 -1.109372	 -1.702581	 0.355565
C	 -0.791153	 1.473151	 -1.037697
H	 0.370595	 0.225616	 0.270908
H	 -1.158362	 0.721569	 0.942023
C	 -2.115055	 2.234023	 -0.975523
H	 0.033362	 2.173024	 -0.921214
H	 -0.676491	 1.028719	 -2.024099
H	 -2.243718	 2.718807	 -0.011807
H	 -2.163946	 3.002377	 -1.740928
H	 -2.958889	 1.565841	 -1.123406

6 3 5 9 F

12 8 5 9 F

1 2 3 6 F

