%nprocshared=1
%mem=2GB
#HF/6-31G* nosymm scf=tight 

Mol

0 1
H	 -1.906468	 1.873830	 -1.212917
C	 -0.893417	 1.491015	 -1.255399
C	 -0.603454	 0.661669	 0.000000
H	 -0.213290	 2.330719	 -1.331330
H	 -0.792518	 0.888762	 -2.150134
C	 0.763625	 0.112519	 0.000000
H	 -0.719923	 1.264234	 0.893264
H	 -1.295481	 -0.168586	 0.079648
N	 1.813038	 -0.320305	 0.000000
