%nprocshared=1
%mem=2GB
#HF/6-31G* nosymm scf=tight 

Mol

0 1
H	 -3.381511	 1.132353	 1.049652
O	 -3.457279	 1.919852	 1.568473
C	 -4.731433	 1.977976	 2.157715
C	 -4.911589	 0.983765	 3.299562
H	 -4.836559	 2.988000	 2.532513
H	 -5.505978	 1.829994	 1.406076
C	 -3.759849	 0.978463	 4.307697
H	 -5.843273	 1.211189	 3.811041
H	 -5.020287	 -0.010489	 2.869432
C	 -2.458457	 0.429914	 3.715842
H	 -4.044284	 0.384313	 5.171669
H	 -3.588787	 1.993216	 4.667355
C	 -2.087810	 0.996018	 2.340165
H	 -1.642680	 0.614289	 4.412520
H	 -2.545531	 -0.651258	 3.631071
C	 -3.034785	 0.600176	 1.203932
H	 -2.066895	 2.081496	 2.411684
H	 -1.073540	 0.690794	 2.087315
C	 -4.465221	 1.099239	 1.418936
H	 -3.044660	 -0.484477	 1.106250
H	 -2.666261	 0.987989	 0.257311
C	 -5.411106	 0.710962	 0.283063
H	 -4.847259	 0.703375	 2.357459
H	 -4.456195	 2.181939	 1.526468
H	 -5.467273	 -0.368187	 0.171231
H	 -6.416738	 1.077069	 0.465559
H	 -5.076338	 1.123259	 -0.664726

14 10 7 4 F

14 10 13 16 F

10 7 4 8 F

8 4 3 2 F

20 16 19 22 F

4 3 2 1 F

