%nprocshared=1
%mem=2GB
#HF/6-31G* nosymm scf=tight 

Mol

0 1
O	 -1.487788	 1.240889	 -0.102860
C	 -1.083277	 0.139568	 0.115197
C	 0.323299	 -0.082943	 0.642902
C	 -1.933017	 -1.084621	 -0.143902
C	 1.355627	 -0.005344	 -0.493127
H	 0.396251	 -1.044647	 1.143147
H	 0.528637	 0.693580	 1.371677
C	 1.014293	 1.076777	 -1.515747
H	 2.342953	 0.187877	 -0.079453
H	 1.405783	 -0.973113	 -0.981029
H	 1.753669	 1.107540	 -2.309515
H	 0.982170	 2.059410	 -1.053983
H	 0.045961	 0.892073	 -1.971011
H	 -1.393885	 -1.806447	 -0.750509
H	 -2.850323	 -0.799888	 -0.640100
H	 -2.169004	 -1.571158	 0.798858

4 2 3 5 F

