%nprocshared=1
%mem=2GB
#HF/6-31G* nosymm scf=tight 

Mol

0 1
O	 1.381333	 2.107614	 -0.189326
C	 0.331796	 2.509768	 -0.576445
C	 -0.963431	 1.735066	 -0.566939
O	 0.160146	 3.726984	 -1.076504
C	 -0.823008	 0.326187	 0.001381
H	 -1.685934	 2.317466	 -0.001686
H	 -1.335825	 1.712663	 -1.587498
C	 -2.149452	 -0.435131	 -0.000098
H	 -0.432892	 0.385753	 1.012544
H	 -0.083322	 -0.220062	 -0.575494
C	 -3.368779	 0.488503	 -0.000883
H	 -2.193746	 -1.087250	 -0.871175
H	 -2.195311	 -1.087803	 0.870418
C	 -3.346354	 1.505125	 -1.141597
H	 -3.422266	 1.013619	 0.950187
H	 -4.273627	 -0.111280	 -0.069069
H	 -2.469560	 2.143689	 -1.080920
H	 -4.223185	 2.144600	 -1.115337
H	 -3.327221	 1.009791	 -2.108339
C	 1.301698	 4.562269	 -1.140636
H	 1.706071	 4.729689	 -0.152718
H	 0.962849	 5.492773	 -1.568678
H	 2.063141	 4.117976	 -1.765387

15 11 8 12 F

1 2 3 6 F

9 5 3 6 F

1 2 4 20 F

