%nprocshared=1
%mem=2GB
#HF/6-31G* nosymm scf=tight 

Mol

0 1
O	 2.429058	 2.212863	 -0.107821
C	 1.801440	 2.037485	 -1.106869
C	 0.599792	 1.110892	 -1.155910
C	 2.167397	 2.734625	 -2.401174
C	 0.279920	 0.436514	 0.174928
H	 -0.252837	 1.689422	 -1.509062
H	 0.783907	 0.367055	 -1.929997
C	 -0.935505	 -0.487980	 0.086527
H	 0.109748	 1.199122	 0.928320
H	 1.147532	 -0.124934	 0.506850
C	 -2.259874	 0.272531	 0.000494
H	 -0.837011	 -1.135740	 -0.783388
H	 -0.955695	 -1.145928	 0.954147
C	 -2.299309	 1.292585	 -1.138781
H	 -2.444011	 0.781638	 0.944910
H	 -3.074869	 -0.438064	 -0.125342
C	 -3.566352	 2.147124	 -1.131721
H	 -1.427462	 1.940154	 -1.072741
H	 -2.220829	 0.772174	 -2.091079
H	 -3.656394	 2.706940	 -0.205088
H	 -3.564796	 2.860504	 -1.950126
H	 -4.455333	 1.530813	 -1.231810
H	 1.336942	 3.339189	 -2.753971
H	 3.031683	 3.364901	 -2.244336
H	 2.386520	 2.005088	 -3.175381

9 5 8 12 F

15 11 8 12 F

1 2 3 6 F

9 5 3 6 F

