%nprocshared=1
%mem=2GB
#HF/6-31G* nosymm scf=tight 

Mol

0 1
O	 0.481711	 1.490390	 -0.253557
C	 0.788116	 1.716284	 -1.379704
C	 1.380472	 0.719373	 -2.345700
O	 0.640172	 2.906476	 -1.947763
C	 0.647689	 -0.618696	 -2.361352
H	 1.379241	 1.180518	 -3.329599
H	 2.426519	 0.592365	 -2.080420
C	 -0.854123	 -0.455225	 -2.599891
H	 0.818120	 -1.130743	 -1.419572
H	 1.076800	 -1.252456	 -3.131105
C	 -1.596740	 0.093972	 -1.380563
H	 -1.017786	 0.208502	 -3.447639
H	 -1.284893	 -1.415732	 -2.878722
C	 -1.003007	 1.402237	 -0.859819
H	 -1.583851	 -0.649862	 -0.587036
H	 -2.642589	 0.248353	 -1.636502
H	 0.033788	 1.271792	 -0.562742
H	 -1.550834	 1.766067	 0.003873
H	 -1.032955	 2.177067	 -1.620773
C	 1.792514	 3.724689	 -2.034891
H	 2.180449	 3.940881	 -1.049855
H	 1.472688	 4.634305	 -2.518819
H	 2.560106	 3.239076	 -2.620117

15 11 8 12 F

9 5 8 12 F

1 2 3 6 F

9 5 3 6 F

