%nprocshared=1
%mem=2GB
#HF/6-31G* nosymm scf=tight 

Mol

0 1
H	 -0.314752	 3.001425	 -0.790005
C	 0.411227	 2.338203	 -0.303388
C	 0.065331	 0.871482	 -0.349150
O	 1.385684	 2.789984	 0.204596
C	 0.741775	 0.074771	 0.775642
H	 0.335926	 0.486616	 -1.325659
H	 -1.015874	 0.792048	 -0.245008
C	 0.218433	 -1.356541	 0.901670
H	 0.585739	 0.600948	 1.712019
H	 1.817211	 0.060020	 0.611754
H	 -0.848783	 -1.363724	 1.100477
H	 0.712780	 -1.878135	 1.714614
H	 0.385763	 -1.928004	 -0.006527

6 3 5 9 F

