%nprocshared=1
%mem=2GB
#HF/6-31G* nosymm scf=tight 

Mol

0 1
H	 -3.489899	 1.228218	 -1.029938
O	 -3.452007	 0.283848	 -0.965577
C	 -3.181085	 -0.079926	 0.364119
C	 -1.765924	 0.277073	 0.805136
H	 -3.327791	 -1.152017	 0.410903
H	 -3.905698	 0.375695	 1.036898
C	 -1.377677	 -0.324186	 2.156531
H	 -1.062210	 -0.052846	 0.040348
H	 -1.683248	 1.361880	 0.844893
C	 -2.165221	 0.269569	 3.326321
H	 -0.314164	 -0.178612	 2.319194
H	 -1.536718	 -1.400777	 2.124093
C	 -3.672053	 0.323397	 3.060529
H	 -1.966363	 -0.316681	 4.220293
H	 -1.802209	 1.275429	 3.533861
C	 -4.093707	 1.294711	 1.951965
H	 -4.190609	 0.584180	 3.981825
H	 -4.013927	 -0.674328	 2.793165
C	 -5.547478	 1.149444	 1.498254
H	 -3.444223	 1.140328	 1.093696
H	 -3.919279	 2.316398	 2.283528
H	 -5.754694	 0.133503	 1.172579
H	 -5.759211	 1.812162	 0.664701
H	 -6.247026	 1.391807	 2.291385

20 16 13 17 F

17 13 10 7 F

13 10 7 11 F

11 7 4 3 F

1 2 3 5 F

