%nprocshared=1
%mem=2GB
#HF/6-31G* nosymm scf=tight 
prop=(read,field)

Mol

0 1
O	 0.625835	 1.350068	 -0.000749
C	 0.486294	 0.169276	 0.000779
C	 1.608103	 -0.841570	 0.000302
O	 -0.698270	 -0.426052	 0.001050
C	 2.990094	 -0.200425	 -0.000684
H	 1.468610	 -1.481446	 -0.865924
H	 1.469670	 -1.481216	 0.866878
H	 3.129723	 0.423437	 -0.875135
H	 3.757869	 -0.966804	 -0.001197
H	 3.130951	 0.423456	 0.873533
C	 -1.853117	 0.406852	 0.000512
C	 -3.066118	 -0.499204	 -0.000959
H	 -1.828423	 1.043147	 -0.873618
H	 -1.829870	 1.042456	 0.875188
H	 -3.071833	 -1.133033	 -0.880383
H	 -3.972721	 0.097218	 -0.001528
H	 -3.073418	 -1.133740	 0.877999

@grid.dat /N
