%nprocshared=1
%mem=2GB
#HF/6-31G* nosymm scf=tight 

Mol

0 1
H	 -0.216825	 0.021369	 -3.357402
C	 0.374198	 0.036393	 -2.447010
C	 -0.521757	 -0.028637	 -1.217342
H	 0.969602	 0.942322	 -2.434777
H	 1.053364	 -0.811668	 -2.481329
N	 0.263400	 0.031178	 0.000000
H	 -1.199035	 0.820290	 -1.219355
H	 -1.147901	 -0.924895	 -1.265384
C	 -0.521757	 -0.028637	 1.217342
H	 0.935769	 -0.712709	 0.000000
C	 0.374950	 -0.203374	 2.435714
H	 -1.072065	 0.903460	 1.305334
H	 -1.268426	 -0.828328	 1.192393
H	 1.092574	 0.606902	 2.497610
H	 -0.211830	 -0.218280	 3.348849
H	 0.927266	 -1.138211	 2.383954
