%nprocshared=1
%mem=2GB
#HF/6-31G* nosymm scf=tight 

Mol

0 1
O	 -2.042549	 -1.228399	 -0.269030
C	 -1.653912	 -0.146171	 0.050137
C	 -0.332303	 0.024011	 0.778412
C	 -2.438579	 1.106236	 -0.272369
C	 0.214710	 -1.333245	 1.247991
H	 0.395421	 0.514413	 0.137861
H	 -0.510051	 0.660523	 1.638168
C	 -0.636894	 -1.961181	 2.352300
H	 1.235680	 -1.214383	 1.606565
H	 0.260834	 -2.002119	 0.393812
C	 -2.130482	 -1.942685	 2.029717
H	 -0.314981	 -2.987008	 2.518060
H	 -0.461412	 -1.430186	 3.284941
H	 -2.342491	 -2.495465	 1.118927
H	 -2.488473	 -0.926836	 1.890665
H	 -2.709423	 -2.391087	 2.830835
H	 -3.277823	 0.863061	 -0.908988
H	 -1.806773	 1.843019	 -0.759671
H	 -2.802853	 1.554979	 0.648059

11 8 5 9 F

9 5 3 2 F

