%nprocshared=1
%mem=2GB
#HF/6-31G* nosymm scf=tight 

Mol

0 1
O	 -2.042549	 -1.228399	 -0.269030
C	 -1.653912	 -0.146171	 0.050137
C	 -0.332303	 0.024011	 0.778412
C	 -2.438579	 1.106236	 -0.272369
C	 -0.429112	 -0.497111	 2.220956
H	 0.463247	 -0.494471	 0.250531
H	 -0.097105	 1.082532	 0.790177
C	 -1.345573	 0.359152	 3.096138
H	 0.563229	 -0.531290	 2.667245
H	 -0.794367	 -1.519413	 2.195899
C	 -2.685447	 0.664212	 2.427643
H	 -1.520284	 -0.148816	 4.042113
H	 -0.840820	 1.291662	 3.337419
H	 -3.229969	 -0.248882	 2.204466
H	 -2.544088	 1.201201	 1.494314
H	 -3.312840	 1.274754	 3.069236
H	 -3.277823	 0.863061	 -0.908988
H	 -1.806773	 1.843019	 -0.759671
H	 -2.802853	 1.554979	 0.648059

11 8 5 9 F

9 5 3 2 F

