%nprocshared=1
%mem=2GB
#HF/6-31G* nosymm scf=tight 

Mol

0 1
H	 7.275324	 -3.041323	 -3.736401
C	 6.899313	 -2.729911	 -2.766782
C	 7.624291	 -3.455641	 -1.634131
H	 7.033920	 -1.655086	 -2.689483
H	 5.831961	 -2.932622	 -2.745160
C	 7.112994	 -3.044348	 -0.251659
H	 8.688157	 -3.252542	 -1.701525
H	 7.500382	 -4.530302	 -1.758395
C	 5.588835	 -3.048900	 -0.132562
H	 7.527100	 -3.705996	 0.500924
H	 7.470574	 -2.042633	 -0.024184
C	 4.964761	 -4.436609	 -0.126394
H	 5.291723	 -2.571403	 0.799904
H	 5.135392	 -2.455969	 -0.923763
C	 3.475324	 -4.538016	 -0.405696
O	 5.612140	 -5.412779	 0.106838
C	 3.142513	 -5.197708	 -1.752249
H	 3.077758	 -3.530724	 -0.373804
H	 3.010537	 -5.105855	 0.398180
C	 3.906992	 -6.506058	 -1.962969
H	 2.073565	 -5.394231	 -1.800676
H	 3.371148	 -4.517137	 -2.568350
C	 3.584233	 -7.172245	 -3.299729
H	 3.675183	 -7.191428	 -1.151430
H	 4.975620	 -6.311267	 -1.903941
H	 2.526789	 -7.408725	 -3.374670
H	 3.837980	 -6.523738	 -4.133494
H	 4.139105	 -8.097216	 -3.419829

10 6 3 2 F

12 15 17 21 F

