%nprocshared=1
%mem=2GB
#HF/6-31G* nosymm scf=tight 

Mol

0 1
H	 -2.698709	 -0.000305	 0.034435
C	 -1.693833	 0.000034	 0.434417
O	 -0.828952	 -0.000968	 -0.659236
H	 -1.574200	 0.882896	 1.055746
H	 -1.574147	 -0.881698	 1.057355
C	 -1.034357	 0.945646	 -1.682092
C	 -2.239121	 0.608391	 -2.558289
C	 -1.083912	 2.377688	 -1.153171
H	 -0.143479	 0.847534	 -2.290977
H	 -2.196361	 -0.428542	 -2.873709
H	 -2.239816	 1.234341	 -3.445094
H	 -3.180501	 0.771745	 -2.043233
H	 -0.242027	 2.565147	 -0.495489
H	 -1.033720	 3.080293	 -1.979181
H	 -1.998700	 2.582414	 -0.606278

9 6 3 2 F

