%nprocshared=1
%mem=2GB
#HF/6-31G* nosymm scf=tight 

Mol

0 1
O	 0.600882	 1.315659	 0.432659
C	 0.473003	 0.150905	 0.230823
C	 1.596791	 -0.857217	 0.198349
O	 -0.698257	 -0.426125	 0.001050
C	 2.963831	 -0.236635	 0.457286
H	 1.563264	 -1.350233	 -0.768635
H	 1.366016	 -1.624986	 0.930838
H	 3.196841	 0.516788	 -0.285293
H	 3.733671	 -1.000173	 0.423049
H	 2.997946	 0.239308	 1.429725
C	 -1.853104	 0.406779	 0.000512
C	 -3.066105	 -0.499277	 -0.000959
H	 -1.828410	 1.043074	 -0.873618
H	 -1.829857	 1.042383	 0.875188
H	 -3.071820	 -1.133106	 -0.880383
H	 -3.972708	 0.097145	 -0.001528
H	 -3.073405	 -1.133813	 0.877999

4 2 3 6 F

11 4 2 3 F

