%nprocshared=1
%mem=2GB
#HF/6-31G* nosymm scf=tight 

Mol

0 1
O	 -0.952970	 0.656922	 -4.607243
C	 -1.947792	 0.407699	 -3.996791
C	 -1.900909	 0.161415	 -2.498975
C	 -3.300850	 0.356402	 -4.670570
C	 -1.210353	 -1.175568	 -2.184727
H	 -2.923293	 0.134225	 -2.138009
H	 -1.385325	 0.973348	 -1.994037
C	 0.149006	 -1.302371	 -2.876593
H	 -1.100152	 -1.254591	 -1.109089
H	 -1.849364	 -2.000232	 -2.496721
C	 0.075323	 -1.399736	 -4.404711
H	 0.669524	 -2.174779	 -2.485833
H	 0.758368	 -0.440308	 -2.613206
C	 -1.053427	 -2.288511	 -4.930067
H	 1.023541	 -1.787350	 -4.768483
H	 -0.024340	 -0.400645	 -4.824201
H	 -0.984148	 -3.291584	 -4.518035
H	 -1.004790	 -2.372263	 -6.011279
H	 -2.032469	 -1.894716	 -4.678683
H	 -3.685561	 -0.659650	 -4.640565
H	 -3.214588	 0.677308	 -5.699337
H	 -4.015315	 0.984725	 -4.146591

6 3 2 1 F

6 3 5 8 F

3 5 8 12 F

