%nprocshared=1
%mem=2GB
#HF/6-31G* nosymm scf=tight 

Mol

0 1
H	 2.591676	 2.013956	 0.335017
O	 3.341076	 1.666752	 -0.126416
C	 3.569581	 0.339145	 0.272707
C	 2.539767	 -0.640285	 -0.279495
H	 4.553106	 0.084646	 -0.100901
H	 3.608576	 0.269204	 1.359154
C	 1.115811	 -0.397273	 0.226630
H	 2.556196	 -0.582511	 -1.364741
H	 2.852081	 -1.648031	 -0.010655
C	 0.115918	 -1.429151	 -0.302766
H	 0.797950	 0.599468	 -0.066350
H	 1.109961	 -0.420744	 1.316472
C	 -0.358530	 -2.455912	 0.732126
H	 -0.746969	 -0.911370	 -0.717706
H	 0.575850	 -1.963147	 -1.131628
C	 -1.201011	 -1.878893	 1.873070
H	 -0.945041	 -3.214033	 0.217272
H	 0.505137	 -2.973149	 1.147315
C	 -1.738293	 -2.954045	 2.820073
H	 -2.036795	 -1.319689	 1.454899
H	 -0.614643	 -1.166069	 2.447837
C	 -2.574277	 -2.380194	 3.963528
H	 -2.338991	 -3.663645	 2.255168
H	 -0.905108	 -3.520171	 3.231399
H	 -3.434452	 -1.835116	 3.585094
H	 -2.942029	 -3.166493	 4.615547
H	 -1.990453	 -1.693801	 4.570469

14 10 13 16 F

10 7 4 8 F

8 4 3 2 F

10 13 16 20 F

20 16 19 22 F

4 3 2 1 F

