%nprocshared=1
%mem=2GB
#HF/6-31G* nosymm scf=tight 

Mol

0 1
H	 -3.135461	 -1.215070	 0.001379
O	 -2.310168	 -0.871793	 -0.309793
C	 -2.026376	 0.340750	 0.341611
C	 -0.673256	 0.843270	 -0.132153
H	 -2.792215	 1.080697	 0.115987
H	 -2.013526	 0.200402	 1.421792
C	 0.486613	 -0.083066	 0.235839
H	 -0.715586	 0.970948	 -1.210718
H	 -0.508072	 1.829858	 0.297090
C	 0.244355	 -1.535196	 -0.179424
H	 0.655597	 -0.033212	 1.306573
H	 1.398224	 0.278110	 -0.238880
C	 -0.775716	 -2.246294	 0.709096
H	 -0.097608	 -1.561349	 -1.211943
H	 1.185285	 -2.081596	 -0.156140
H	 -1.737908	 -1.743094	 0.679629
H	 -0.928962	 -3.272749	 0.389956
H	 -0.446655	 -2.267496	 1.744364

14 10 7 11 F

2 3 4 8 F

1 2 3 4 F

