%nprocshared=1
%mem=2GB
#HF/6-31G* nosymm scf=tight 

Mol

0 1
H	 -3.269016	 -0.876744	 0.468090
C	 -2.809304	 0.000122	 0.025886
N	 -1.391456	 0.000019	 0.300661
H	 -3.037557	 -0.000063	 -1.044252
H	 -3.269223	 0.876956	 0.468000
C	 -0.938698	 -1.260315	 0.855960
C	 -0.995001	 1.107366	 1.148255
H	 -1.415561	 -1.470068	 1.818307
H	 -1.208979	 -2.059536	 0.173496
C	 0.570555	 -1.247335	 1.041847
H	 -1.306372	 2.034925	 0.678959
H	 -1.475589	 1.054347	 2.129954
C	 0.514253	 1.120346	 1.334142
H	 0.881927	 -2.174894	 1.511142
H	 1.051143	 -1.194315	 0.060149
N	 0.967010	 -0.139988	 1.889441
H	 0.784533	 1.919567	 2.016607
H	 0.991115	 1.330099	 0.371795
C	 2.384858	 -0.140091	 2.164217
H	 2.667555	 -1.075219	 2.634739
H	 2.626408	 0.664792	 2.849523
H	 2.994869	 -0.014712	 1.264516
