%nprocshared=1
%mem=2GB
#HF/6-31G* nosymm scf=tight 
prop=(read,field)

Mol

0 1
O	 -1.487915	 1.240997	 -0.102872
C	 -1.083404	 0.139676	 0.115185
C	 0.323172	 -0.082835	 0.642890
C	 -1.933144	 -1.084513	 -0.143914
C	 1.355500	 -0.005236	 -0.493139
H	 0.396124	 -1.044539	 1.143135
H	 0.528510	 0.693688	 1.371665
C	 2.786041	 -0.195496	 0.007461
H	 1.132680	 -0.760196	 -1.243911
H	 1.259483	 0.958614	 -0.981927
H	 3.495434	 -0.130605	 -0.811222
H	 2.912569	 -1.165287	 0.480029
H	 3.049157	 0.565611	 0.735838
H	 -1.394012	 -1.806339	 -0.750521
H	 -2.850450	 -0.799780	 -0.640112
H	 -2.169131	 -1.571050	 0.798846

@grid.dat /N
