%nprocshared=1
%mem=2GB
#HF/6-31G* nosymm scf=tight 

Mol

0 1
H	 0.408319	 2.667538	 0.888596
C	 0.883278	 1.726134	 0.585486
C	 0.065331	 0.871482	 -0.349150
O	 1.966046	 1.447235	 0.987415
C	 -1.339775	 0.583656	 0.198860
H	 0.611527	 -0.044958	 -0.540776
H	 -0.020489	 1.413854	 -1.289697
C	 -1.808407	 -0.848507	 -0.061364
H	 -2.036183	 1.280685	 -0.256307
H	 -1.360094	 0.788874	 1.267089
H	 -1.828843	 -1.063152	 -1.125336
H	 -2.808409	 -1.004529	 0.329750
H	 -1.153967	 -1.577789	 0.406873

6 3 2 4 F

