%nprocshared=1
%mem=2GB
#HF/6-31G* nosymm scf=tight 

Mol

0 1
O	 -0.668302	 -0.369604	 1.985025
C	 -0.451170	 -1.129930	 1.097049
C	 0.801727	 -1.959116	 0.945507
O	 -1.298602	 -1.351680	 0.101914
C	 1.124911	 -2.785238	 2.184071
H	 1.613075	 -1.280220	 0.700432
H	 0.669725	 -2.590969	 0.072237
H	 1.272053	 -2.149836	 3.048928
H	 2.030738	 -3.360307	 2.024106
H	 0.320287	 -3.472711	 2.414906
C	 -2.528566	 -0.634418	 0.113087
C	 -3.351258	 -1.162295	 1.269304
H	 -3.030243	 -0.780164	 -0.833836
H	 -2.320101	 0.421390	 0.219868
H	 -3.546787	 -2.221892	 1.150220
H	 -4.301744	 -0.640622	 1.314919
H	 -2.832867	 -1.013754	 2.209763

2 4 11 13 F

11 4 2 3 F

